ligprep_h3d.sdf:3059_1052
  -OEChem-08212117123D

 76 81  0     1  0  0  0  0  0999 V2000
  -16.4471   -4.9738  -28.9664 C   0  0  0  0  0  0  0  0  0  0  0  0
  -17.3684   -4.7336  -29.9807 C   0  0  0  0  0  0  0  0  0  0  0  0
  -19.0561   -5.1501  -36.9205 C   0  0  0  0  0  0  0  0  0  0  0  0
  -20.7424   -7.7162  -32.8980 C   0  0  0  0  0  0  0  0  0  0  0  0
  -19.7317   -4.7892  -35.7544 C   0  0  0  0  0  0  0  0  0  0  0  0
  -20.0668   -8.0771  -34.0641 C   0  0  0  0  0  0  0  0  0  0  0  0
  -24.7611   -4.8768  -25.3864 C   0  0  0  0  0  0  0  0  0  0  0  0
  -23.2739   -4.2424  -23.5912 C   0  0  0  0  0  0  0  0  0  0  0  0
  -25.8291   -4.9104  -24.4899 C   0  0  0  0  0  0  0  0  0  0  0  0
  -24.3420   -4.2759  -22.6946 C   0  0  0  0  0  0  0  0  0  0  0  0
  -16.8627   -5.0496  -27.6359 C   0  0  0  0  0  0  0  0  0  0  0  0
  -18.7275   -4.5489  -29.6980 C   0  0  0  0  0  0  0  0  0  0  0  0
  -18.7134   -6.4803  -37.1440 C   0  0  0  0  0  0  0  0  0  0  0  0
  -21.0851   -6.3859  -32.6746 C   0  0  0  0  0  0  0  0  0  0  0  0
  -19.7250   -7.1095  -35.0229 C   0  0  0  0  0  0  0  0  0  0  0  0
  -20.0734   -5.7568  -34.7956 C   0  0  0  0  0  0  0  0  0  0  0  0
  -23.4835   -4.5429  -24.9371 C   0  0  0  0  0  0  0  0  0  0  0  0
  -25.6196   -4.6099  -23.1440 C   0  0  0  0  0  0  0  0  0  0  0  0
  -18.2257   -4.8710  -27.3372 C   0  0  0  0  0  0  0  0  0  0  0  0
  -19.1390   -4.6034  -28.3567 C   0  0  0  0  0  0  0  0  0  0  0  0
  -19.0450   -7.4547  -36.2022 C   0  0  0  0  0  0  0  0  0  0  0  0
  -20.7534   -5.4115  -33.6163 C   0  0  0  0  0  0  0  0  0  0  0  0
  -20.1285   -4.7325  -26.3553 C   0  0  0  0  0  0  0  0  0  0  0  0
  -22.6703   -4.1494  -27.3032 C   0  0  0  0  0  0  0  0  0  0  0  0
  -22.3443   -4.5064  -25.8920 C   0  0  0  0  0  0  0  0  0  0  0  0
  -21.6487   -4.1273  -28.1791 C   0  0  0  0  0  0  0  0  0  0  0  0
  -24.6166   -5.4936  -31.9923 C   0  0  0  0  0  0  0  0  0  0  0  0
  -17.3852   -9.2929  -36.0399 C   0  0  0  0  0  0  0  0  0  0  0  0
  -19.5750   -9.6716  -37.1844 C   0  0  0  0  0  0  0  0  0  0  0  0
  -23.7943   -4.7236  -32.9688 C   0  0  0  0  0  0  0  0  0  0  0  0
  -23.1417   -3.3809  -29.9515 C   0  0  0  0  0  0  0  0  0  0  0  0
  -23.1232   -2.9433  -31.4064 C   0  0  0  0  0  0  0  0  0  0  0  0
  -26.7622   -4.6448  -22.1859 C   0  0  0  0  0  0  0  0  0  0  0  0
  -18.8485   -4.9393  -26.1243 N   0  0  0  0  0  0  0  0  0  0  0  0
  -21.1482   -4.7591  -25.4517 N   0  0  0  0  0  0  0  0  0  0  0  0
  -20.3630   -4.4588  -27.7082 N   0  0  0  0  0  0  0  0  0  0  0  0
  -21.8383   -3.7573  -29.4826 N   0  0  0  0  0  0  0  0  0  0  0  0
  -18.6699   -8.7928  -36.4770 N   0  0  0  0  0  0  0  0  0  0  0  0
  -22.6750   -3.9943  -32.2793 N   0  0  2  0  0  0  0  0  0  0  0  0
  -20.2050   -3.1871  -32.3833 O   0  0  0  0  0  0  0  0  0  0  0  0
  -21.5552   -3.0974  -34.4936 O   0  0  0  0  0  0  0  0  0  0  0  0
  -27.9516   -4.9857  -22.7646 F   0  0  0  0  0  0  0  0  0  0  0  0
  -26.5934   -5.5377  -21.1662 F   0  0  0  0  0  0  0  0  0  0  0  0
  -26.9800   -3.4391  -21.5845 F   0  0  0  0  0  0  0  0  0  0  0  0
  -21.2347   -3.7498  -33.2374 S   0  0  0  0  0  0  0  0  0  0  0  0
  -15.3977   -5.1138  -29.2110 H   0  0  0  0  0  0  0  0  0  0  0  0
  -17.0296   -4.6920  -31.0129 H   0  0  0  0  0  0  0  0  0  0  0  0
  -18.7976   -4.3920  -37.6542 H   0  0  0  0  0  0  0  0  0  0  0  0
  -20.9997   -8.4741  -32.1638 H   0  0  0  0  0  0  0  0  0  0  0  0
  -19.9771   -3.7386  -35.6253 H   0  0  0  0  0  0  0  0  0  0  0  0
  -19.8163   -9.1267  -34.2005 H   0  0  0  0  0  0  0  0  0  0  0  0
  -24.9350   -5.1126  -26.4331 H   0  0  0  0  0  0  0  0  0  0  0  0
  -22.2828   -3.9810  -23.2298 H   0  0  0  0  0  0  0  0  0  0  0  0
  -26.8212   -5.1712  -24.8487 H   0  0  0  0  0  0  0  0  0  0  0  0
  -24.1697   -4.0399  -21.6477 H   0  0  0  0  0  0  0  0  0  0  0  0
  -16.1436   -5.2531  -26.8483 H   0  0  0  0  0  0  0  0  0  0  0  0
  -19.4157   -4.3858  -30.5174 H   0  0  0  0  0  0  0  0  0  0  0  0
  -18.1861   -6.7469  -38.0567 H   0  0  0  0  0  0  0  0  0  0  0  0
  -21.6107   -6.1211  -31.7608 H   0  0  0  0  0  0  0  0  0  0  0  0
  -23.6899   -3.9025  -27.5747 H   0  0  0  0  0  0  0  0  0  0  0  0
  -25.0462   -4.8047  -31.2502 H   0  0  0  0  0  0  0  0  0  0  0  0
  -25.4281   -6.0116  -32.5245 H   0  0  0  0  0  0  0  0  0  0  0  0
  -23.9823   -6.2333  -31.4818 H   0  0  0  0  0  0  0  0  0  0  0  0
  -17.2777  -10.3445  -36.3442 H   0  0  0  0  0  0  0  0  0  0  0  0
  -16.5838   -8.6949  -36.4982 H   0  0  0  0  0  0  0  0  0  0  0  0
  -17.3168   -9.2195  -34.9445 H   0  0  0  0  0  0  0  0  0  0  0  0
  -19.1093  -10.6613  -37.3015 H   0  0  0  0  0  0  0  0  0  0  0  0
  -20.5098   -9.7717  -36.6134 H   0  0  0  0  0  0  0  0  0  0  0  0
  -19.7946   -9.2502  -38.1764 H   0  0  0  0  0  0  0  0  0  0  0  0
  -23.3686   -5.4192  -33.7070 H   0  0  0  0  0  0  0  0  0  0  0  0
  -24.4368   -3.9928  -33.4817 H   0  0  0  0  0  0  0  0  0  0  0  0
  -23.8040   -4.2393  -29.8009 H   0  0  0  0  0  0  0  0  0  0  0  0
  -23.4865   -2.5591  -29.3162 H   0  0  0  0  0  0  0  0  0  0  0  0
  -24.1304   -2.6639  -31.7308 H   0  0  0  0  0  0  0  0  0  0  0  0
  -22.4598   -2.0855  -31.5566 H   0  0  0  0  0  0  0  0  0  0  0  0
  -21.0393   -3.7648  -30.0678 H   0  0  0  0  0  0  0  0  0  0  0  0
  1  2  2  0  0  0  0
  1 11  1  0  0  0  0
  2 12  1  0  0  0  0
  3  5  1  0  0  0  0
  3 13  2  0  0  0  0
  4  6  2  0  0  0  0
  4 14  1  0  0  0  0
  5 16  2  0  0  0  0
  6 15  1  0  0  0  0
  7  9  1  0  0  0  0
  7 17  2  0  0  0  0
  8 10  2  0  0  0  0
  8 17  1  0  0  0  0
  9 18  2  0  0  0  0
 10 18  1  0  0  0  0
 11 19  2  0  0  0  0
 12 20  2  0  0  0  0
 13 21  1  0  0  0  0
 14 22  2  0  0  0  0
 15 16  1  0  0  0  0
 15 21  2  0  0  0  0
 16 22  1  0  0  0  0
 17 25  1  0  0  0  0
 18 33  1  0  0  0  0
 19 20  1  0  0  0  0
 19 34  1  0  0  0  0
 20 36  1  0  0  0  0
 21 38  1  0  0  0  0
 22 45  1  0  0  0  0
 23 34  2  0  0  0  0
 23 35  1  0  0  0  0
 23 36  1  0  0  0  0
 24 25  1  0  0  0  0
 24 26  2  0  0  0  0
 25 35  2  0  0  0  0
 26 36  1  0  0  0  0
 26 37  1  0  0  0  0
 27 30  1  0  0  0  0
 28 38  1  0  0  0  0
 29 38  1  0  0  0  0
 30 39  1  0  0  0  0
 31 32  1  0  0  0  0
 31 37  1  0  0  0  0
 32 39  1  0  0  0  0
 33 42  1  0  0  0  0
 33 43  1  0  0  0  0
 33 44  1  0  0  0  0
 39 45  1  0  0  0  0
 40 45  2  0  0  0  0
 41 45  2  0  0  0  0
  1 46  1  0  0  0  0
  2 47  1  0  0  0  0
  3 48  1  0  0  0  0
  4 49  1  0  0  0  0
  5 50  1  0  0  0  0
  6 51  1  0  0  0  0
  7 52  1  0  0  0  0
  8 53  1  0  0  0  0
  9 54  1  0  0  0  0
 10 55  1  0  0  0  0
 11 56  1  0  0  0  0
 12 57  1  0  0  0  0
 13 58  1  0  0  0  0
 14 59  1  0  0  0  0
 24 60  1  0  0  0  0
 27 61  1  0  0  0  0
 27 62  1  0  0  0  0
 27 63  1  0  0  0  0
 28 64  1  0  0  0  0
 28 65  1  0  0  0  0
 28 66  1  0  0  0  0
 29 67  1  0  0  0  0
 29 68  1  0  0  0  0
 29 69  1  0  0  0  0
 30 70  1  0  0  0  0
 30 71  1  0  0  0  0
 31 72  1  0  0  0  0
 31 73  1  0  0  0  0
 32 74  1  0  0  0  0
 32 75  1  0  0  0  0
 37 76  1  0  0  0  0
M  END
> <SMILES>
CCN(CCNc1cc(nc2nc3ccccc3n12)-c1ccc(cc1)C(F)(F)F)S(=O)(=O)c1cccc2c(cccc12)N(C)C

> <FORMATTED_ID>
H3D-015764

> <MOLFORMULA>
C33H31F3N6O2S

> <Exact Mass>
632.22

> <XLogP>
7.37

> <TPSA_NOPS>
91.2

> <s_m_source_file>
ligprep_h3d.sdf

> <i_m_source_file_index>
3059

> <i_lp_mmshare_version>
55123

> <i_f3d_flags>
0

> <s_epik_input>
W0NIM11OKFtDSDNdKWMxW2NIXVtjSF1bY0hdYyhjMTIpYyhbY0hdW2NIXVtjSF0yKVMoPU8pKD1PKU4oW0NIMl1bQ0gzXSlbQ0gyXVtDSDJdW05IXWMobihjMzQpYzVjKG40KVtjSF1bY0hdW2NIXVtjSF01KVtjSF1jKG4zKS1jNltjSF1bY0hdYyhDKEYpKEYpRilbY0hdW2NIXTY=

> <s_epik_cmdline>
J2VwaWtfcHl0aG9uJywgJy1waHQnLCAnMC41JywgJy1waCcsICc3LjUnLCAnLXRuJywgJzgnLCAnLW1hJywgJzUwMCcsICctaW1hZScsICc8aW5maWxlLm1hZT4nLCAnLW9tYWUnLCAnPG91dGZpbGUubWFlPic=

> <r_lp_tautomer_probability>
1

> <r_epik_Ionization_Penalty>
0.00249995

> <r_epik_Ionization_Penalty_Charging>
0

> <r_epik_Ionization_Penalty_Neutral>
0.00249995

> <r_epik_State_Penalty>
-0

> <r_epik_Charging_Adjusted_Penalty>
0

> <i_epik_Tot_Q>
0

> <i_epik_Tot_abs_Q>
0

> <s_lp_Force_Field>
S-OPLS

> <r_lp_Energy>
89.4762

> <b_lp_Chiralities_Consistent>
1

> <s_lp_Variant>
ligprep_h3d.sdf:3059-1

> <ROCS_ShapeQuery>
_7L13

> <ROCS_TanimotoCombo>
0.741 

> <ROCS_ShapeTanimoto>
0.630 

> <ROCS_ColorTanimoto>
0.111 

> <ROCS_RefTversky>
0.859 

> <ROCS_RefColorTversky>
0.220 

> <ROCS_RefTverskyCombo>
1.079 

> <ROCS_FitTversky>
0.703 

> <ROCS_FitColorTversky>
0.183 

> <ROCS_FitTverskyCombo>
0.886 

> <ROCS_ColorScore>
-2.007

> <ROCS_Overlap>
1444.034

> <ROCS_Rank>
1                   

$$$$
ligprep_h3d.sdf:1110_1675
  -OEChem-08212117123D

 62 67  0     1  0  0  0  0  0999 V2000
  -20.9688   -5.0853  -29.5273 C   0  0  0  0  0  0  0  0  0  0  0  0
  -21.7602   -4.3310  -30.3957 C   0  0  0  0  0  0  0  0  0  0  0  0
  -21.0796   -4.8592  -28.1336 C   0  0  0  0  0  0  0  0  0  0  0  0
  -21.9911   -3.9268  -27.5848 C   0  0  0  0  0  0  0  0  0  0  0  0
  -22.6206   -3.4000  -29.8570 C   0  0  0  0  0  0  0  0  0  0  0  0
  -22.7661   -3.1633  -28.4898 C   0  0  0  0  0  0  0  0  0  0  0  0
  -21.9647   -4.2134  -31.7831 C   0  0  0  0  0  0  0  0  0  0  0  0
  -20.4458   -8.1558  -33.9365 C   0  0  0  0  0  0  0  0  0  0  0  0
  -19.1624   -6.5742  -35.8079 C   0  0  0  0  0  0  0  0  0  0  0  0
  -19.1640   -7.8750  -36.1611 C   0  0  0  0  0  0  0  0  0  0  0  0
  -20.3509   -6.8288  -33.7436 C   0  0  0  0  0  0  0  0  0  0  0  0
  -19.8599   -8.7736  -35.1571 C   0  0  0  0  0  0  0  0  0  0  0  0
  -18.9219   -3.7812  -26.2178 C   0  0  0  0  0  0  0  0  0  0  0  0
  -19.2235   -6.0636  -25.0575 C   0  0  0  0  0  0  0  0  0  0  0  0
  -16.9791   -5.2610  -25.7624 C   0  0  0  0  0  0  0  0  0  0  0  0
  -20.1964   -5.6758  -27.2284 C   0  0  0  0  0  0  0  0  0  0  0  0
  -23.0637   -2.8164  -25.6356 C   0  0  0  0  0  0  0  0  0  0  0  0
  -21.2015   -4.4728  -25.2476 C   0  0  2  0  0  0  0  0  0  0  0  0
  -23.4236   -3.1478  -24.1845 C   0  0  1  0  0  0  0  0  0  0  0  0
  -21.0439   -3.5478  -24.0057 C   0  0  2  0  0  0  0  0  0  0  0  0
  -19.8685   -4.9503  -25.8995 C   0  0  0  0  0  0  0  0  0  0  0  0
  -24.3944   -4.3218  -24.0727 C   0  0  0  0  0  0  0  0  0  0  0  0
  -20.0782   -4.0280  -22.9288 C   0  0  0  0  0  0  0  0  0  0  0  0
  -19.6037   -4.5493  -34.4604 C   0  0  0  0  0  0  0  0  0  0  0  0
  -20.9420   -6.2307  -32.5182 C   0  0  0  0  0  0  0  0  0  0  0  0
  -22.8766   -3.2838  -32.0840 N   0  0  0  0  0  0  0  0  0  0  0  0
  -17.5746   -4.1050  -26.2464 N   0  0  0  0  0  0  0  0  0  0  0  0
  -17.8453   -6.1659  -25.1655 N   0  0  0  0  0  0  0  0  0  0  0  0
  -22.0977   -3.7671  -26.2011 N   0  0  3  0  0  0  0  0  0  0  0  0
  -19.7085   -5.9954  -34.6689 N   0  0  0  0  0  0  0  0  0  0  0  0
  -18.6866   -8.4509  -37.1759 O   0  5  0  0  0  0  0  0  0  0  0  0
  -19.9569   -9.9895  -35.3142 O   0  0  0  0  0  0  0  0  0  0  0  0
  -19.3170   -2.6484  -26.4932 O   0  0  0  0  0  0  0  0  0  0  0  0
  -19.8819   -6.8706  -24.3999 O   0  0  0  0  0  0  0  0  0  0  0  0
  -15.7633   -5.4517  -25.8215 O   0  0  0  0  0  0  0  0  0  0  0  0
  -23.2890   -2.7684  -30.8606 O   0  0  0  0  0  0  0  0  0  0  0  0
  -22.3048   -3.4023  -23.3406 O   0  0  0  0  0  0  0  0  0  0  0  0
  -21.3766   -4.8867  -32.7808 O   0  0  0  0  0  0  0  0  0  0  0  0
  -23.5597   -2.1543  -28.1120 F   0  0  0  0  0  0  0  0  0  0  0  0
  -20.2739   -5.8243  -29.9160 H   0  0  0  0  0  0  0  0  0  0  0  0
  -20.9390   -8.8155  -33.2314 H   0  0  0  0  0  0  0  0  0  0  0  0
  -18.6883   -5.8438  -36.4593 H   0  0  0  0  0  0  0  0  0  0  0  0
  -20.7125   -6.6267  -27.0363 H   0  0  0  0  0  0  0  0  0  0  0  0
  -19.2644   -5.9249  -27.7540 H   0  0  0  0  0  0  0  0  0  0  0  0
  -23.9777   -2.8637  -26.2634 H   0  0  0  0  0  0  0  0  0  0  0  0
  -22.7648   -1.7572  -25.6680 H   0  0  0  0  0  0  0  0  0  0  0  0
  -21.7676   -5.3608  -24.9261 H   0  0  0  0  0  0  0  0  0  0  0  0
  -23.9791   -2.2507  -23.7392 H   0  0  0  0  0  0  0  0  0  0  0  0
  -20.7121   -2.5380  -24.3093 H   0  0  0  0  0  0  0  0  0  0  0  0
  -23.9370   -5.2239  -24.4790 H   0  0  0  0  0  0  0  0  0  0  0  0
  -25.3062   -4.1059  -24.6296 H   0  0  0  0  0  0  0  0  0  0  0  0
  -24.6509   -4.4952  -23.0275 H   0  0  0  0  0  0  0  0  0  0  0  0
  -20.3613   -5.0253  -22.5920 H   0  0  0  0  0  0  0  0  0  0  0  0
  -20.1008   -3.3476  -22.0776 H   0  0  0  0  0  0  0  0  0  0  0  0
  -19.0639   -4.0636  -23.3266 H   0  0  0  0  0  0  0  0  0  0  0  0
  -20.4753   -4.0496  -34.9083 H   0  0  0  0  0  0  0  0  0  0  0  0
  -19.5730   -4.3357  -33.3818 H   0  0  0  0  0  0  0  0  0  0  0  0
  -18.6838   -4.1763  -34.9343 H   0  0  0  0  0  0  0  0  0  0  0  0
  -20.2103   -6.2098  -31.7056 H   0  0  0  0  0  0  0  0  0  0  0  0
  -21.8079   -6.8147  -32.1951 H   0  0  0  0  0  0  0  0  0  0  0  0
  -16.9546   -3.4205  -26.6683 H   0  0  0  0  0  0  0  0  0  0  0  0
  -17.4157   -6.9668  -24.7118 H   0  0  0  0  0  0  0  0  0  0  0  0
  1  2  2  0  0  0  0
  1  3  1  0  0  0  0
  2  5  1  0  0  0  0
  2  7  1  0  0  0  0
  3  4  2  0  0  0  0
  3 16  1  0  0  0  0
  4  6  1  0  0  0  0
  4 29  1  0  0  0  0
  5  6  2  0  0  0  0
  5 36  1  0  0  0  0
  6 39  1  0  0  0  0
  7 26  2  0  0  0  0
  7 38  1  0  0  0  0
  8 11  2  0  0  0  0
  8 12  1  0  0  0  0
  9 10  2  0  0  0  0
  9 30  1  0  0  0  0
 10 12  1  0  0  0  0
 10 31  1  0  0  0  0
 11 25  1  0  0  0  0
 11 30  1  0  0  0  0
 12 32  2  0  0  0  0
 13 21  1  0  0  0  0
 13 27  1  0  0  0  0
 13 33  2  0  0  0  0
 14 21  1  0  0  0  0
 14 28  1  0  0  0  0
 14 34  2  0  0  0  0
 15 27  1  0  0  0  0
 15 28  1  0  0  0  0
 15 35  2  0  0  0  0
 16 21  1  0  0  0  0
 17 19  1  0  0  0  0
 17 29  1  0  0  0  0
 18 20  1  0  0  0  0
 18 21  1  0  0  0  0
 18 29  1  0  0  0  0
 19 22  1  0  0  0  0
 19 37  1  0  0  0  0
 20 23  1  0  0  0  0
 20 37  1  0  0  0  0
 24 30  1  0  0  0  0
 25 38  1  0  0  0  0
 26 36  1  0  0  0  0
  1 40  1  0  0  0  0
  8 41  1  0  0  0  0
  9 42  1  0  0  0  0
 16 43  1  0  0  0  0
 16 44  1  0  0  0  0
 17 45  1  0  0  0  0
 17 46  1  0  0  0  0
 18 47  1  0  0  0  0
 19 48  1  0  0  0  0
 20 49  1  0  0  0  0
 22 50  1  0  0  0  0
 22 51  1  0  0  0  0
 22 52  1  0  0  0  0
 23 53  1  0  0  0  0
 23 54  1  0  0  0  0
 23 55  1  0  0  0  0
 24 56  1  0  0  0  0
 24 57  1  0  0  0  0
 24 58  1  0  0  0  0
 25 59  1  0  0  0  0
 25 60  1  0  0  0  0
 27 61  1  0  0  0  0
 28 62  1  0  0  0  0
M  CHG  1  31  -1
M  END
> <SMILES>
CC1CN2C(C(C)O1)C1(Cc3cc4c(noc4c(c32)F)OCC2=CC(=O)C(=CN2C)O)C(=O)NC(=O)NC1=O

> <FORMATTED_ID>
H3D-006963

> <MOLFORMULA>
C25H24FN5O8

> <Exact Mass>
541.16

> <XLogP>
-0.1

> <TPSA_NOPS>
163.8

> <s_m_source_file>
ligprep_h3d.sdf

> <i_m_source_file_index>
1110

> <i_lp_mmshare_version>
55123

> <i_f3d_flags>
0

> <s_epik_input>
Tz1DMVtOSF1DKD1PKVtOSF1DKD1PKUMxMltDQEBIXTNOKFtDSDJdW0NAQEhdKFtDSDNdKU9bQ0BIXTNbQ0gzXSljNGMoW0NIMl0yKVtjSF1jNWMoYzRGKW9uYzVPW0NIMl1jNltjSF1jKD1PKWMoW09IXSlbY0hdbjZbQ0gzXQ==

> <s_epik_cmdline>
J2VwaWtfcHl0aG9uJywgJy1waHQnLCAnMC41JywgJy1waCcsICc3LjUnLCAnLXRuJywgJzgnLCAnLW1hJywgJzUwMCcsICctaW1hZScsICc8aW5maWxlLm1hZT4nLCAnLW9tYWUnLCAnPG91dGZpbGUubWFlPic=

> <r_lp_tautomer_probability>
1

> <r_epik_Ionization_Penalty>
2.64772

> <r_epik_Ionization_Penalty_Charging>
2.27859

> <r_epik_Ionization_Penalty_Neutral>
0.369125

> <r_epik_State_Penalty>
0.434264

> <r_epik_Charging_Adjusted_Penalty>
2.71286

> <i_epik_Tot_Q>
-1

> <i_epik_Tot_abs_Q>
1

> <s_lp_Force_Field>
S-OPLS

> <r_lp_Energy>
65.3668

> <b_lp_Chiralities_Consistent>
1

> <s_lp_Variant>
ligprep_h3d.sdf:1110-1

> <ROCS_ShapeQuery>
_7L13

> <ROCS_TanimotoCombo>
0.801 

> <ROCS_ShapeTanimoto>
0.683 

> <ROCS_ColorTanimoto>
0.119 

> <ROCS_RefTversky>
0.852 

> <ROCS_RefColorTversky>
0.294 

> <ROCS_RefTverskyCombo>
1.146 

> <ROCS_FitTversky>
0.775 

> <ROCS_FitColorTversky>
0.166 

> <ROCS_FitTverskyCombo>
0.941 

> <ROCS_ColorScore>
-2.764

> <ROCS_Overlap>
1422.148

> <ROCS_Rank>
2                   

$$$$
ligprep_h3d.sdf:1110_1678
  -OEChem-08212117123D

 61 66  0     1  0  0  0  0  0999 V2000
  -20.9829   -5.1018  -29.5221 C   0  0  0  0  0  0  0  0  0  0  0  0
  -21.7647   -4.3394  -30.3925 C   0  0  0  0  0  0  0  0  0  0  0  0
  -21.0931   -4.8714  -28.1297 C   0  0  0  0  0  0  0  0  0  0  0  0
  -21.9937   -3.9263  -27.5839 C   0  0  0  0  0  0  0  0  0  0  0  0
  -22.6150   -3.3973  -29.8566 C   0  0  0  0  0  0  0  0  0  0  0  0
  -22.7597   -3.1560  -28.4902 C   0  0  0  0  0  0  0  0  0  0  0  0
  -21.9662   -4.2220  -31.7804 C   0  0  0  0  0  0  0  0  0  0  0  0
  -20.4918   -8.1865  -33.9241 C   0  0  0  0  0  0  0  0  0  0  0  0
  -19.1873   -6.6241  -35.7971 C   0  0  0  0  0  0  0  0  0  0  0  0
  -19.2041   -7.9255  -36.1476 C   0  0  0  0  0  0  0  0  0  0  0  0
  -20.3813   -6.8603  -33.7337 C   0  0  0  0  0  0  0  0  0  0  0  0
  -19.9118   -8.8137  -35.1427 C   0  0  0  0  0  0  0  0  0  0  0  0
  -18.9051   -3.7673  -26.2566 C   0  0  0  0  0  0  0  0  0  0  0  0
  -19.1974   -5.9916  -25.0447 C   0  0  0  0  0  0  0  0  0  0  0  0
  -17.0360   -5.0853  -25.8687 C   0  0  0  0  0  0  0  0  0  0  0  0
  -20.2254   -5.6955  -27.2165 C   0  0  0  0  0  0  0  0  0  0  0  0
  -23.0713   -2.8197  -25.6353 C   0  0  0  0  0  0  0  0  0  0  0  0
  -21.1905   -4.4567  -25.2475 C   0  0  2  0  0  0  0  0  0  0  0  0
  -23.4281   -3.1551  -24.1842 C   0  0  1  0  0  0  0  0  0  0  0  0
  -21.0433   -3.5278  -24.0066 C   0  0  2  0  0  0  0  0  0  0  0  0
  -19.8607   -4.9352  -25.9175 C   0  0  2  0  0  0  0  0  0  0  0  0
  -24.3904   -4.3363  -24.0739 C   0  0  0  0  0  0  0  0  0  0  0  0
  -20.0695   -3.9883  -22.9293 C   0  0  0  0  0  0  0  0  0  0  0  0
  -19.6061   -4.5914  -34.4541 C   0  0  0  0  0  0  0  0  0  0  0  0
  -20.9667   -6.2528  -32.5103 C   0  0  0  0  0  0  0  0  0  0  0  0
  -22.8663   -3.2821  -32.0842 N   0  0  0  0  0  0  0  0  0  0  0  0
  -17.6384   -4.0914  -26.5228 N   0  5  0  0  0  0  0  0  0  0  0  0
  -17.8187   -5.9526  -25.1088 N   0  0  0  0  0  0  0  0  0  0  0  0
  -22.0985   -3.7631  -26.2004 N   0  0  3  0  0  0  0  0  0  0  0  0
  -19.7279   -6.0366  -34.6599 N   0  0  0  0  0  0  0  0  0  0  0  0
  -18.7323   -8.5091  -37.1607 O   0  5  0  0  0  0  0  0  0  0  0  0
  -20.0232  -10.0287  -35.2975 O   0  0  0  0  0  0  0  0  0  0  0  0
  -19.3352   -2.6210  -26.3830 O   0  0  0  0  0  0  0  0  0  0  0  0
  -19.8140   -6.8436  -24.4089 O   0  0  0  0  0  0  0  0  0  0  0  0
  -15.8189   -5.2815  -25.9223 O   0  0  0  0  0  0  0  0  0  0  0  0
  -23.2743   -2.7597  -30.8624 O   0  0  0  0  0  0  0  0  0  0  0  0
  -22.3072   -3.4044  -23.3410 O   0  0  0  0  0  0  0  0  0  0  0  0
  -21.3850   -4.9043  -32.7761 O   0  0  0  0  0  0  0  0  0  0  0  0
  -23.5420   -2.1383  -28.1115 F   0  0  0  0  0  0  0  0  0  0  0  0
  -20.2963   -5.8495  -29.9084 H   0  0  0  0  0  0  0  0  0  0  0  0
  -20.9937   -8.8389  -33.2183 H   0  0  0  0  0  0  0  0  0  0  0  0
  -18.7037   -5.9007  -36.4493 H   0  0  0  0  0  0  0  0  0  0  0  0
  -20.7705   -6.6210  -26.9863 H   0  0  0  0  0  0  0  0  0  0  0  0
  -19.3120   -5.9967  -27.7462 H   0  0  0  0  0  0  0  0  0  0  0  0
  -23.9847   -2.8733  -26.2628 H   0  0  0  0  0  0  0  0  0  0  0  0
  -22.7779   -1.7588  -25.6689 H   0  0  0  0  0  0  0  0  0  0  0  0
  -21.7482   -5.3488  -24.9197 H   0  0  0  0  0  0  0  0  0  0  0  0
  -23.9894   -2.2630  -23.7369 H   0  0  0  0  0  0  0  0  0  0  0  0
  -20.7320   -2.5117  -24.3088 H   0  0  0  0  0  0  0  0  0  0  0  0
  -23.9269   -5.2344  -24.4823 H   0  0  0  0  0  0  0  0  0  0  0  0
  -25.3042   -4.1260  -24.6299 H   0  0  0  0  0  0  0  0  0  0  0  0
  -24.6450   -4.5136  -23.0289 H   0  0  0  0  0  0  0  0  0  0  0  0
  -20.3321   -4.9914  -22.5933 H   0  0  0  0  0  0  0  0  0  0  0  0
  -20.1071   -3.3090  -22.0777 H   0  0  0  0  0  0  0  0  0  0  0  0
  -19.0542   -4.0026  -23.3260 H   0  0  0  0  0  0  0  0  0  0  0  0
  -20.4712   -4.0822  -34.9041 H   0  0  0  0  0  0  0  0  0  0  0  0
  -19.5742   -4.3761  -33.3759 H   0  0  0  0  0  0  0  0  0  0  0  0
  -18.6812   -4.2303  -34.9276 H   0  0  0  0  0  0  0  0  0  0  0  0
  -20.2359   -6.2390  -31.6968 H   0  0  0  0  0  0  0  0  0  0  0  0
  -21.8399   -6.8258  -32.1871 H   0  0  0  0  0  0  0  0  0  0  0  0
  -17.3204   -6.6303  -24.5399 H   0  0  0  0  0  0  0  0  0  0  0  0
  1  2  2  0  0  0  0
  1  3  1  0  0  0  0
  2  5  1  0  0  0  0
  2  7  1  0  0  0  0
  3  4  2  0  0  0  0
  3 16  1  0  0  0  0
  4  6  1  0  0  0  0
  4 29  1  0  0  0  0
  5  6  2  0  0  0  0
  5 36  1  0  0  0  0
  6 39  1  0  0  0  0
  7 26  2  0  0  0  0
  7 38  1  0  0  0  0
  8 11  2  0  0  0  0
  8 12  1  0  0  0  0
  9 10  2  0  0  0  0
  9 30  1  0  0  0  0
 10 12  1  0  0  0  0
 10 31  1  0  0  0  0
 11 25  1  0  0  0  0
 11 30  1  0  0  0  0
 12 32  2  0  0  0  0
 13 21  1  0  0  0  0
 13 27  1  0  0  0  0
 13 33  2  0  0  0  0
 14 21  1  0  0  0  0
 14 28  1  0  0  0  0
 14 34  2  0  0  0  0
 15 27  1  0  0  0  0
 15 28  1  0  0  0  0
 15 35  2  0  0  0  0
 16 21  1  0  0  0  0
 17 19  1  0  0  0  0
 17 29  1  0  0  0  0
 18 20  1  0  0  0  0
 18 21  1  0  0  0  0
 18 29  1  0  0  0  0
 19 22  1  0  0  0  0
 19 37  1  0  0  0  0
 20 23  1  0  0  0  0
 20 37  1  0  0  0  0
 24 30  1  0  0  0  0
 25 38  1  0  0  0  0
 26 36  1  0  0  0  0
  1 40  1  0  0  0  0
  8 41  1  0  0  0  0
  9 42  1  0  0  0  0
 16 43  1  0  0  0  0
 16 44  1  0  0  0  0
 17 45  1  0  0  0  0
 17 46  1  0  0  0  0
 18 47  1  0  0  0  0
 19 48  1  0  0  0  0
 20 49  1  0  0  0  0
 22 50  1  0  0  0  0
 22 51  1  0  0  0  0
 22 52  1  0  0  0  0
 23 53  1  0  0  0  0
 23 54  1  0  0  0  0
 23 55  1  0  0  0  0
 24 56  1  0  0  0  0
 24 57  1  0  0  0  0
 24 58  1  0  0  0  0
 25 59  1  0  0  0  0
 25 60  1  0  0  0  0
 28 61  1  0  0  0  0
M  CHG  2  27  -1  31  -1
M  END
> <SMILES>
CC1CN2C(C(C)O1)C1(Cc3cc4c(noc4c(c32)F)OCC2=CC(=O)C(=CN2C)O)C(=O)NC(=O)NC1=O

> <FORMATTED_ID>
H3D-006963

> <MOLFORMULA>
C25H24FN5O8

> <Exact Mass>
541.16

> <XLogP>
-0.1

> <TPSA_NOPS>
163.8

> <s_m_source_file>
ligprep_h3d.sdf

> <i_m_source_file_index>
1110

> <i_lp_mmshare_version>
55123

> <i_f3d_flags>
0

> <s_epik_input>
Tz1DMVtOSF1DKD1PKVtOSF1DKD1PKUMxMltDQEBIXTNOKFtDSDJdW0NAQEhdKFtDSDNdKU9bQ0BIXTNbQ0gzXSljNGMoW0NIMl0yKVtjSF1jNWMoYzRGKW9uYzVPW0NIMl1jNltjSF1jKD1PKWMoW09IXSlbY0hdbjZbQ0gzXQ==

> <s_epik_cmdline>
J2VwaWtfcHl0aG9uJywgJy1waHQnLCAnMC41JywgJy1waCcsICc3LjUnLCAnLXRuJywgJzgnLCAnLW1hJywgJzUwMCcsICctaW1hZScsICc8aW5maWxlLm1hZT4nLCAnLW9tYWUnLCAnPG91dGZpbGUubWFlPic=

> <r_lp_tautomer_probability>
1

> <r_epik_Ionization_Penalty>
2.73398

> <r_epik_Ionization_Penalty_Charging>
2.73397

> <r_epik_Ionization_Penalty_Neutral>
1.46169e-05

> <r_epik_State_Penalty>
0.526301

> <r_epik_Charging_Adjusted_Penalty>
3.26027

> <i_epik_Tot_Q>
-2

> <i_epik_Tot_abs_Q>
2

> <s_lp_Force_Field>
S-OPLS

> <r_lp_Energy>
73.8465

> <b_lp_Chiralities_Consistent>
1

> <s_lp_Variant>
ligprep_h3d.sdf:1110-2

> <ROCS_ShapeQuery>
_7L13

> <ROCS_TanimotoCombo>
0.791 

> <ROCS_ShapeTanimoto>
0.677 

> <ROCS_ColorTanimoto>
0.114 

> <ROCS_RefTversky>
0.849 

> <ROCS_RefColorTversky>
0.293 

> <ROCS_RefTverskyCombo>
1.142 

> <ROCS_FitTversky>
0.770 

> <ROCS_FitColorTversky>
0.157 

> <ROCS_FitTverskyCombo>
0.927 

> <ROCS_ColorScore>
-2.767

> <ROCS_Overlap>
1418.002

> <ROCS_Rank>
3                   

$$$$
ligprep_h3d.sdf:812_935
  -OEChem-08212117123D

 74 80  0     1  0  0  0  0  0999 V2000
  -20.9625   -5.0826  -29.5142 C   0  0  0  0  0  0  0  0  0  0  0  0
  -21.7574   -4.3364  -30.3865 C   0  0  0  0  0  0  0  0  0  0  0  0
  -21.0776   -4.8529  -28.1214 C   0  0  0  0  0  0  0  0  0  0  0  0
  -21.9966   -3.9251  -27.5773 C   0  0  0  0  0  0  0  0  0  0  0  0
  -22.6252   -3.4098  -29.8523 C   0  0  0  0  0  0  0  0  0  0  0  0
  -22.7751   -3.1698  -28.4861 C   0  0  0  0  0  0  0  0  0  0  0  0
  -21.9599   -4.2245  -31.7746 C   0  0  0  0  0  0  0  0  0  0  0  0
  -18.9312   -3.7540  -26.2047 C   0  0  0  0  0  0  0  0  0  0  0  0
  -19.2192   -6.0347  -25.0379 C   0  0  0  0  0  0  0  0  0  0  0  0
  -16.9791   -5.2188  -25.7409 C   0  0  0  0  0  0  0  0  0  0  0  0
  -19.2248   -7.1734  -35.7655 C   0  0  0  0  0  0  0  0  0  0  0  0
  -20.1906   -5.6605  -27.2119 C   0  0  0  0  0  0  0  0  0  0  0  0
  -19.7940   -4.9479  -32.7638 C   0  0  0  0  0  0  0  0  0  0  0  0
  -21.9579   -5.9159  -33.5987 C   0  0  0  0  0  0  0  0  0  0  0  0
  -19.3214   -5.3044  -34.1710 C   0  0  0  0  0  0  0  0  0  0  0  0
  -21.0473   -7.0801  -33.9959 C   0  0  0  0  0  0  0  0  0  0  0  0
  -19.7007   -8.7518  -37.6153 C   0  0  0  0  0  0  0  0  0  0  0  0
  -20.0140   -9.5500  -35.3124 C   0  0  0  0  0  0  0  0  0  0  0  0
  -23.0807   -2.8161  -25.6336 C   0  0  0  0  0  0  0  0  0  0  0  0
  -18.8150   -9.9610  -37.8724 C   0  0  0  0  0  0  0  0  0  0  0  0
  -19.1392  -10.7485  -35.6744 C   0  0  0  0  0  0  0  0  0  0  0  0
  -21.2079   -4.4583  -25.2368 C   0  0  2  0  0  0  0  0  0  0  0  0
  -23.4411   -3.1454  -24.1823 C   0  0  1  0  0  0  0  0  0  0  0  0
  -21.0590   -3.5284  -23.9975 C   0  0  2  0  0  0  0  0  0  0  0  0
  -19.8703   -4.9286  -25.8846 C   0  0  0  0  0  0  0  0  0  0  0  0
  -24.4041   -4.3257  -24.0686 C   0  0  0  0  0  0  0  0  0  0  0  0
  -20.0922   -3.9986  -22.9172 C   0  0  0  0  0  0  0  0  0  0  0  0
  -22.8777   -3.3023  -32.0801 N   0  0  0  0  0  0  0  0  0  0  0  0
  -17.5816   -4.0685  -26.2297 N   0  0  0  0  0  0  0  0  0  0  0  0
  -17.8402   -6.1279  -25.1429 N   0  0  0  0  0  0  0  0  0  0  0  0
  -22.1070   -3.7618  -26.1943 N   0  0  3  0  0  0  0  0  0  0  0  0
  -21.2568   -5.0050  -32.6883 N   0  0  0  0  0  0  0  0  0  0  0  0
  -19.8007   -6.6122  -34.6144 N   0  0  0  0  0  0  0  0  0  0  0  0
  -19.7040   -8.4167  -36.1913 N   0  0  0  0  0  0  0  0  0  0  0  0
  -19.3335   -2.6248  -26.4845 O   0  0  0  0  0  0  0  0  0  0  0  0
  -19.8733   -6.8443  -24.3791 O   0  0  0  0  0  0  0  0  0  0  0  0
  -15.7618   -5.4014  -25.7971 O   0  0  0  0  0  0  0  0  0  0  0  0
  -18.3355   -6.5788  -36.3894 O   0  0  0  0  0  0  0  0  0  0  0  0
  -23.2960   -2.7860  -30.8592 O   0  0  0  0  0  0  0  0  0  0  0  0
  -19.2509  -11.0588  -37.0653 O   0  0  0  0  0  0  0  0  0  0  0  0
  -22.3223   -3.3895  -23.3353 O   0  0  0  0  0  0  0  0  0  0  0  0
  -23.5753   -2.1642  -28.1129 F   0  0  0  0  0  0  0  0  0  0  0  0
  -20.2619   -5.8194  -29.8968 H   0  0  0  0  0  0  0  0  0  0  0  0
  -20.7001   -6.6144  -27.0179 H   0  0  0  0  0  0  0  0  0  0  0  0
  -19.2557   -5.9047  -27.7349 H   0  0  0  0  0  0  0  0  0  0  0  0
  -19.3642   -5.6399  -32.0284 H   0  0  0  0  0  0  0  0  0  0  0  0
  -19.4387   -3.9404  -32.5125 H   0  0  0  0  0  0  0  0  0  0  0  0
  -22.2800   -5.3638  -34.4906 H   0  0  0  0  0  0  0  0  0  0  0  0
  -22.8599   -6.3182  -33.1203 H   0  0  0  0  0  0  0  0  0  0  0  0
  -19.6940   -4.5485  -34.8791 H   0  0  0  0  0  0  0  0  0  0  0  0
  -18.2227   -5.2787  -34.1977 H   0  0  0  0  0  0  0  0  0  0  0  0
  -20.7795   -7.6736  -33.1186 H   0  0  0  0  0  0  0  0  0  0  0  0
  -21.5581   -7.7401  -34.6988 H   0  0  0  0  0  0  0  0  0  0  0  0
  -19.3812   -7.8989  -38.2214 H   0  0  0  0  0  0  0  0  0  0  0  0
  -20.7391   -8.9848  -37.8793 H   0  0  0  0  0  0  0  0  0  0  0  0
  -21.0722   -9.7914  -35.4604 H   0  0  0  0  0  0  0  0  0  0  0  0
  -19.8350   -9.3049  -34.2651 H   0  0  0  0  0  0  0  0  0  0  0  0
  -23.9928   -2.8715  -26.2631 H   0  0  0  0  0  0  0  0  0  0  0  0
  -22.7891   -1.7551  -25.6686 H   0  0  0  0  0  0  0  0  0  0  0  0
  -18.8959  -10.2674  -38.9199 H   0  0  0  0  0  0  0  0  0  0  0  0
  -17.7601   -9.7440  -37.6672 H   0  0  0  0  0  0  0  0  0  0  0  0
  -18.0874  -10.5651  -35.4237 H   0  0  0  0  0  0  0  0  0  0  0  0
  -19.4648  -11.6285  -35.1107 H   0  0  0  0  0  0  0  0  0  0  0  0
  -21.7686   -5.3491  -24.9136 H   0  0  0  0  0  0  0  0  0  0  0  0
  -24.0037   -2.2509  -23.7410 H   0  0  0  0  0  0  0  0  0  0  0  0
  -20.7335   -2.5172  -24.3034 H   0  0  0  0  0  0  0  0  0  0  0  0
  -23.9398   -5.2262  -24.4711 H   0  0  0  0  0  0  0  0  0  0  0  0
  -25.3163   -4.1182  -24.6281 H   0  0  0  0  0  0  0  0  0  0  0  0
  -24.6617   -4.4978  -23.0234 H   0  0  0  0  0  0  0  0  0  0  0  0
  -20.3691   -4.9967  -22.5780 H   0  0  0  0  0  0  0  0  0  0  0  0
  -20.1213   -3.3156  -22.0683 H   0  0  0  0  0  0  0  0  0  0  0  0
  -19.0770   -4.0282  -23.3130 H   0  0  0  0  0  0  0  0  0  0  0  0
  -16.9655   -3.3810  -26.6525 H   0  0  0  0  0  0  0  0  0  0  0  0
  -17.4059   -6.9245  -24.6859 H   0  0  0  0  0  0  0  0  0  0  0  0
  1  2  2  0  0  0  0
  1  3  1  0  0  0  0
  2  5  1  0  0  0  0
  2  7  1  0  0  0  0
  3  4  2  0  0  0  0
  3 12  1  0  0  0  0
  4  6  1  0  0  0  0
  4 31  1  0  0  0  0
  5  6  2  0  0  0  0
  5 39  1  0  0  0  0
  6 42  1  0  0  0  0
  7 28  2  0  0  0  0
  7 32  1  0  0  0  0
  8 25  1  0  0  0  0
  8 29  1  0  0  0  0
  8 35  2  0  0  0  0
  9 25  1  0  0  0  0
  9 30  1  0  0  0  0
  9 36  2  0  0  0  0
 10 29  1  0  0  0  0
 10 30  1  0  0  0  0
 10 37  2  0  0  0  0
 11 33  1  0  0  0  0
 11 34  1  0  0  0  0
 11 38  2  0  0  0  0
 12 25  1  0  0  0  0
 13 15  1  0  0  0  0
 13 32  1  0  0  0  0
 14 16  1  0  0  0  0
 14 32  1  0  0  0  0
 15 33  1  0  0  0  0
 16 33  1  0  0  0  0
 17 20  1  0  0  0  0
 17 34  1  0  0  0  0
 18 21  1  0  0  0  0
 18 34  1  0  0  0  0
 19 23  1  0  0  0  0
 19 31  1  0  0  0  0
 20 40  1  0  0  0  0
 21 40  1  0  0  0  0
 22 24  1  0  0  0  0
 22 25  1  0  0  0  0
 22 31  1  0  0  0  0
 23 26  1  0  0  0  0
 23 41  1  0  0  0  0
 24 27  1  0  0  0  0
 24 41  1  0  0  0  0
 28 39  1  0  0  0  0
  1 43  1  0  0  0  0
 12 44  1  0  0  0  0
 12 45  1  0  0  0  0
 13 46  1  0  0  0  0
 13 47  1  0  0  0  0
 14 48  1  0  0  0  0
 14 49  1  0  0  0  0
 15 50  1  0  0  0  0
 15 51  1  0  0  0  0
 16 52  1  0  0  0  0
 16 53  1  0  0  0  0
 17 54  1  0  0  0  0
 17 55  1  0  0  0  0
 18 56  1  0  0  0  0
 18 57  1  0  0  0  0
 19 58  1  0  0  0  0
 19 59  1  0  0  0  0
 20 60  1  0  0  0  0
 20 61  1  0  0  0  0
 21 62  1  0  0  0  0
 21 63  1  0  0  0  0
 22 64  1  0  0  0  0
 23 65  1  0  0  0  0
 24 66  1  0  0  0  0
 26 67  1  0  0  0  0
 26 68  1  0  0  0  0
 26 69  1  0  0  0  0
 27 70  1  0  0  0  0
 27 71  1  0  0  0  0
 27 72  1  0  0  0  0
 29 73  1  0  0  0  0
 30 74  1  0  0  0  0
M  END
> <SMILES>
C[C@@H]1CN2[C@H]([C@H](C)O1)C1(Cc3cc4c(noc4c(c32)F)N2CCN(CC2)C(=O)N2CCOCC2)C(=O)NC(=O)NC1=O

> <FORMATTED_ID>
H3D-005490

> <MOLFORMULA>
C27H32FN7O7

> <Exact Mass>
585.23

> <XLogP>
-0.4

> <TPSA_NOPS>
150.1

> <s_m_source_file>
ligprep_h3d.sdf

> <i_m_source_file_index>
812

> <i_lp_mmshare_version>
55123

> <i_f3d_flags>
0

> <s_epik_input>
Tz1DMVtOSF1DKD1PKVtOSF1DKD1PKUMxMltDQEBIXTNOKFtDSDJdW0NAQEhdKFtDSDNdKU9bQ0BIXTNbQ0gzXSljNGMoW0NIMl0yKVtjSF1jNWMoYzRGKW9uYzVONltDSDJdW0NIMl1OKFtDSDJdW0NIMl02KUMoPU8pTjdbQ0gyXVtDSDJdT1tDSDJdW0NIMl03

> <s_epik_cmdline>
J2VwaWtfcHl0aG9uJywgJy1waHQnLCAnMC41JywgJy1waCcsICc3LjUnLCAnLXRuJywgJzgnLCAnLW1hJywgJzUwMCcsICctaW1hZScsICc8aW5maWxlLm1hZT4nLCAnLW9tYWUnLCAnPG91dGZpbGUubWFlPic=

> <r_lp_tautomer_probability>
1

> <r_epik_Ionization_Penalty>
0.369135

> <r_epik_Ionization_Penalty_Charging>
0

> <r_epik_Ionization_Penalty_Neutral>
0.369135

> <r_epik_State_Penalty>
0.366447

> <r_epik_Charging_Adjusted_Penalty>
0.366447

> <i_epik_Tot_Q>
0

> <i_epik_Tot_abs_Q>
0

> <s_lp_Force_Field>
S-OPLS

> <r_lp_Energy>
69.0482

> <b_lp_Chiralities_Consistent>
1

> <s_lp_Variant>
ligprep_h3d.sdf:812-1

> <ROCS_ShapeQuery>
_7L13

> <ROCS_TanimotoCombo>
0.759 

> <ROCS_ShapeTanimoto>
0.634 

> <ROCS_ColorTanimoto>
0.124 

> <ROCS_RefTversky>
0.843 

> <ROCS_RefColorTversky>
0.296 

> <ROCS_RefTverskyCombo>
1.138 

> <ROCS_FitTversky>
0.720 

> <ROCS_FitColorTversky>
0.176 

> <ROCS_FitTverskyCombo>
0.896 

> <ROCS_ColorScore>
-2.765

> <ROCS_Overlap>
1412.598

> <ROCS_Rank>
4                   

$$$$
ligprep_h3d.sdf:812_1079
  -OEChem-08212117123D

 73 79  0     1  0  0  0  0  0999 V2000
  -20.9658   -5.1082  -29.5071 C   0  0  0  0  0  0  0  0  0  0  0  0
  -21.7510   -4.3565  -30.3837 C   0  0  0  0  0  0  0  0  0  0  0  0
  -21.0829   -4.8726  -28.1161 C   0  0  0  0  0  0  0  0  0  0  0  0
  -21.9936   -3.9329  -27.5777 C   0  0  0  0  0  0  0  0  0  0  0  0
  -22.6114   -3.4194  -29.8550 C   0  0  0  0  0  0  0  0  0  0  0  0
  -22.7630   -3.1733  -28.4902 C   0  0  0  0  0  0  0  0  0  0  0  0
  -21.9486   -4.2470  -31.7728 C   0  0  0  0  0  0  0  0  0  0  0  0
  -18.9112   -3.7413  -26.2402 C   0  0  0  0  0  0  0  0  0  0  0  0
  -19.1887   -5.9626  -25.0195 C   0  0  0  0  0  0  0  0  0  0  0  0
  -17.0323   -5.0413  -25.8399 C   0  0  0  0  0  0  0  0  0  0  0  0
  -19.2554   -7.2090  -35.7740 C   0  0  0  0  0  0  0  0  0  0  0  0
  -20.2115   -5.6851  -27.1962 C   0  0  0  0  0  0  0  0  0  0  0  0
  -21.9610   -5.9375  -33.5970 C   0  0  0  0  0  0  0  0  0  0  0  0
  -19.7868   -5.0101  -32.7422 C   0  0  0  0  0  0  0  0  0  0  0  0
  -21.0642   -7.1128  -33.9924 C   0  0  0  0  0  0  0  0  0  0  0  0
  -19.3070   -5.3663  -34.1471 C   0  0  0  0  0  0  0  0  0  0  0  0
  -19.7355   -9.5754  -35.0095 C   0  0  0  0  0  0  0  0  0  0  0  0
  -19.1573   -9.1138  -37.3428 C   0  0  0  0  0  0  0  0  0  0  0  0
  -23.0877   -2.8270  -25.6379 C   0  0  0  0  0  0  0  0  0  0  0  0
  -20.7268  -10.6197  -35.4994 C   0  0  0  0  0  0  0  0  0  0  0  0
  -20.1593  -10.1857  -37.7521 C   0  0  0  0  0  0  0  0  0  0  0  0
  -21.1943   -4.4459  -25.2362 C   0  0  2  0  0  0  0  0  0  0  0  0
  -23.4467   -3.1591  -24.1866 C   0  0  1  0  0  0  0  0  0  0  0  0
  -21.0595   -3.5103  -23.9989 C   0  0  2  0  0  0  0  0  0  0  0  0
  -19.8579   -4.9160  -25.8993 C   0  0  2  0  0  0  0  0  0  0  0  0
  -24.3992   -4.3480  -24.0744 C   0  0  0  0  0  0  0  0  0  0  0  0
  -20.0855   -3.9575  -22.9162 C   0  0  0  0  0  0  0  0  0  0  0  0
  -22.8557   -3.3163  -32.0840 N   0  0  0  0  0  0  0  0  0  0  0  0
  -17.6409   -4.0557  -26.5006 N   0  5  0  0  0  0  0  0  0  0  0  0
  -17.8102   -5.9121  -25.0789 N   0  0  0  0  0  0  0  0  0  0  0  0
  -22.1047   -3.7645  -26.1953 N   0  0  3  0  0  0  0  0  0  0  0  0
  -21.2512   -5.0377  -32.6821 N   0  0  0  0  0  0  0  0  0  0  0  0
  -19.8128   -6.6575  -34.6094 N   0  0  0  0  0  0  0  0  0  0  0  0
  -19.5245   -8.5561  -36.0425 N   0  0  0  0  0  0  0  0  0  0  0  0
  -19.3508   -2.5994  -26.3733 O   0  0  0  0  0  0  0  0  0  0  0  0
  -19.8002   -6.8171  -24.3821 O   0  0  0  0  0  0  0  0  0  0  0  0
  -15.8134   -5.2273  -25.8884 O   0  0  0  0  0  0  0  0  0  0  0  0
  -18.5734   -6.5231  -36.5468 O   0  0  0  0  0  0  0  0  0  0  0  0
  -23.2726   -2.7920  -30.8660 O   0  0  0  0  0  0  0  0  0  0  0  0
  -20.2708  -11.1845  -36.7336 O   0  0  0  0  0  0  0  0  0  0  0  0
  -22.3267   -3.3949  -23.3383 O   0  0  0  0  0  0  0  0  0  0  0  0
  -23.5551   -2.1603  -28.1189 F   0  0  0  0  0  0  0  0  0  0  0  0
  -20.2711   -5.8528  -29.8853 H   0  0  0  0  0  0  0  0  0  0  0  0
  -20.7492   -6.6144  -26.9635 H   0  0  0  0  0  0  0  0  0  0  0  0
  -19.2937   -5.9807  -27.7214 H   0  0  0  0  0  0  0  0  0  0  0  0
  -22.2733   -5.3789  -34.4885 H   0  0  0  0  0  0  0  0  0  0  0  0
  -22.8689   -6.3280  -33.1201 H   0  0  0  0  0  0  0  0  0  0  0  0
  -19.3787   -5.7169  -32.0087 H   0  0  0  0  0  0  0  0  0  0  0  0
  -19.4110   -4.0132  -32.4792 H   0  0  0  0  0  0  0  0  0  0  0  0
  -20.8096   -7.6897  -33.0969 H   0  0  0  0  0  0  0  0  0  0  0  0
  -21.6078   -7.7625  -34.6842 H   0  0  0  0  0  0  0  0  0  0  0  0
  -19.6326   -4.6046  -34.8675 H   0  0  0  0  0  0  0  0  0  0  0  0
  -18.2111   -5.3886  -34.1804 H   0  0  0  0  0  0  0  0  0  0  0  0
  -20.0740   -9.1240  -34.0739 H   0  0  0  0  0  0  0  0  0  0  0  0
  -18.7591  -10.0386  -34.8319 H   0  0  0  0  0  0  0  0  0  0  0  0
  -18.1560   -9.5472  -37.2373 H   0  0  0  0  0  0  0  0  0  0  0  0
  -19.1451   -8.3475  -38.1197 H   0  0  0  0  0  0  0  0  0  0  0  0
  -23.9983   -2.8913  -26.2684 H   0  0  0  0  0  0  0  0  0  0  0  0
  -22.8035   -1.7638  -25.6756 H   0  0  0  0  0  0  0  0  0  0  0  0
  -20.8023  -11.4341  -34.7712 H   0  0  0  0  0  0  0  0  0  0  0  0
  -21.7306  -10.1975  -35.6327 H   0  0  0  0  0  0  0  0  0  0  0  0
  -21.1475   -9.7564  -37.9515 H   0  0  0  0  0  0  0  0  0  0  0  0
  -19.8214  -10.6820  -38.6662 H   0  0  0  0  0  0  0  0  0  0  0  0
  -21.7454   -5.3413  -24.9063 H   0  0  0  0  0  0  0  0  0  0  0  0
  -24.0175   -2.2699  -23.7453 H   0  0  0  0  0  0  0  0  0  0  0  0
  -20.7556   -2.4929  -24.3045 H   0  0  0  0  0  0  0  0  0  0  0  0
  -23.9265   -5.2440  -24.4772 H   0  0  0  0  0  0  0  0  0  0  0  0
  -25.3128   -4.1482  -24.6345 H   0  0  0  0  0  0  0  0  0  0  0  0
  -24.6561   -4.5230  -23.0295 H   0  0  0  0  0  0  0  0  0  0  0  0
  -20.3408   -4.9614  -22.5765 H   0  0  0  0  0  0  0  0  0  0  0  0
  -20.1319   -3.2747  -22.0678 H   0  0  0  0  0  0  0  0  0  0  0  0
  -19.0688   -3.9650  -23.3092 H   0  0  0  0  0  0  0  0  0  0  0  0
  -17.3080   -6.5829  -24.5051 H   0  0  0  0  0  0  0  0  0  0  0  0
  1  2  2  0  0  0  0
  1  3  1  0  0  0  0
  2  5  1  0  0  0  0
  2  7  1  0  0  0  0
  3  4  2  0  0  0  0
  3 12  1  0  0  0  0
  4  6  1  0  0  0  0
  4 31  1  0  0  0  0
  5  6  2  0  0  0  0
  5 39  1  0  0  0  0
  6 42  1  0  0  0  0
  7 28  2  0  0  0  0
  7 32  1  0  0  0  0
  8 25  1  0  0  0  0
  8 29  1  0  0  0  0
  8 35  2  0  0  0  0
  9 25  1  0  0  0  0
  9 30  1  0  0  0  0
  9 36  2  0  0  0  0
 10 29  1  0  0  0  0
 10 30  1  0  0  0  0
 10 37  2  0  0  0  0
 11 33  1  0  0  0  0
 11 34  1  0  0  0  0
 11 38  2  0  0  0  0
 12 25  1  0  0  0  0
 13 15  1  0  0  0  0
 13 32  1  0  0  0  0
 14 16  1  0  0  0  0
 14 32  1  0  0  0  0
 15 33  1  0  0  0  0
 16 33  1  0  0  0  0
 17 20  1  0  0  0  0
 17 34  1  0  0  0  0
 18 21  1  0  0  0  0
 18 34  1  0  0  0  0
 19 23  1  0  0  0  0
 19 31  1  0  0  0  0
 20 40  1  0  0  0  0
 21 40  1  0  0  0  0
 22 24  1  0  0  0  0
 22 25  1  0  0  0  0
 22 31  1  0  0  0  0
 23 26  1  0  0  0  0
 23 41  1  0  0  0  0
 24 27  1  0  0  0  0
 24 41  1  0  0  0  0
 28 39  1  0  0  0  0
  1 43  1  0  0  0  0
 12 44  1  0  0  0  0
 12 45  1  0  0  0  0
 13 46  1  0  0  0  0
 13 47  1  0  0  0  0
 14 48  1  0  0  0  0
 14 49  1  0  0  0  0
 15 50  1  0  0  0  0
 15 51  1  0  0  0  0
 16 52  1  0  0  0  0
 16 53  1  0  0  0  0
 17 54  1  0  0  0  0
 17 55  1  0  0  0  0
 18 56  1  0  0  0  0
 18 57  1  0  0  0  0
 19 58  1  0  0  0  0
 19 59  1  0  0  0  0
 20 60  1  0  0  0  0
 20 61  1  0  0  0  0
 21 62  1  0  0  0  0
 21 63  1  0  0  0  0
 22 64  1  0  0  0  0
 23 65  1  0  0  0  0
 24 66  1  0  0  0  0
 26 67  1  0  0  0  0
 26 68  1  0  0  0  0
 26 69  1  0  0  0  0
 27 70  1  0  0  0  0
 27 71  1  0  0  0  0
 27 72  1  0  0  0  0
 30 73  1  0  0  0  0
M  CHG  1  29  -1
M  END
> <SMILES>
C[C@@H]1CN2[C@H]([C@H](C)O1)C1(Cc3cc4c(noc4c(c32)F)N2CCN(CC2)C(=O)N2CCOCC2)C(=O)NC(=O)NC1=O

> <FORMATTED_ID>
H3D-005490

> <MOLFORMULA>
C27H32FN7O7

> <Exact Mass>
585.23

> <XLogP>
-0.4

> <TPSA_NOPS>
150.1

> <s_m_source_file>
ligprep_h3d.sdf

> <i_m_source_file_index>
812

> <i_lp_mmshare_version>
55123

> <i_f3d_flags>
0

> <s_epik_input>
Tz1DMVtOSF1DKD1PKVtOSF1DKD1PKUMxMltDQEBIXTNOKFtDSDJdW0NAQEhdKFtDSDNdKU9bQ0BIXTNbQ0gzXSljNGMoW0NIMl0yKVtjSF1jNWMoYzRGKW9uYzVONltDSDJdW0NIMl1OKFtDSDJdW0NIMl02KUMoPU8pTjdbQ0gyXVtDSDJdT1tDSDJdW0NIMl03

> <s_epik_cmdline>
J2VwaWtfcHl0aG9uJywgJy1waHQnLCAnMC41JywgJy1waCcsICc3LjUnLCAnLXRuJywgJzgnLCAnLW1hJywgJzUwMCcsICctaW1hZScsICc8aW5maWxlLm1hZT4nLCAnLW9tYWUnLCAnPG91dGZpbGUubWFlPic=

> <r_lp_tautomer_probability>
1

> <r_epik_Ionization_Penalty>
0.455398

> <r_epik_Ionization_Penalty_Charging>
0.455373

> <r_epik_Ionization_Penalty_Neutral>
2.43801e-05

> <r_epik_State_Penalty>
0.458483

> <r_epik_Charging_Adjusted_Penalty>
0.913857

> <i_epik_Tot_Q>
-1

> <i_epik_Tot_abs_Q>
1

> <s_lp_Force_Field>
S-OPLS

> <r_lp_Energy>
74.7657

> <b_lp_Chiralities_Consistent>
1

> <s_lp_Variant>
ligprep_h3d.sdf:812-2

> <ROCS_ShapeQuery>
_7L13

> <ROCS_TanimotoCombo>
0.750 

> <ROCS_ShapeTanimoto>
0.631 

> <ROCS_ColorTanimoto>
0.119 

> <ROCS_RefTversky>
0.841 

> <ROCS_RefColorTversky>
0.294 

> <ROCS_RefTverskyCombo>
1.135 

> <ROCS_FitTversky>
0.717 

> <ROCS_FitColorTversky>
0.166 

> <ROCS_FitTverskyCombo>
0.883 

> <ROCS_ColorScore>
-2.767

> <ROCS_Overlap>
1410.424

> <ROCS_Rank>
5                   

$$$$
ligprep_h3d.sdf:1109_1049
  -OEChem-08212117123D

 59 64  0     1  0  0  0  0  0999 V2000
  -20.9683   -5.0822  -29.5277 C   0  0  0  0  0  0  0  0  0  0  0  0
  -21.7618   -4.3301  -30.3961 C   0  0  0  0  0  0  0  0  0  0  0  0
  -21.0800   -4.8566  -28.1339 C   0  0  0  0  0  0  0  0  0  0  0  0
  -21.9943   -3.9270  -27.5851 C   0  0  0  0  0  0  0  0  0  0  0  0
  -22.6250   -3.4018  -29.8573 C   0  0  0  0  0  0  0  0  0  0  0  0
  -22.7715   -3.1657  -28.4901 C   0  0  0  0  0  0  0  0  0  0  0  0
  -21.9664   -4.2129  -31.7834 C   0  0  0  0  0  0  0  0  0  0  0  0
  -20.3921   -8.1367  -34.0115 C   0  0  0  0  0  0  0  0  0  0  0  0
  -19.1635   -6.3583  -35.7450 C   0  0  0  0  0  0  0  0  0  0  0  0
  -19.1367   -7.6369  -36.1368 C   0  0  0  0  0  0  0  0  0  0  0  0
  -20.3446   -6.8232  -33.7441 C   0  0  0  0  0  0  0  0  0  0  0  0
  -19.7756   -8.6437  -35.2585 C   0  0  0  0  0  0  0  0  0  0  0  0
  -18.9257   -3.7725  -26.2176 C   0  0  0  0  0  0  0  0  0  0  0  0
  -19.2207   -6.0559  -25.0577 C   0  0  0  0  0  0  0  0  0  0  0  0
  -16.9787   -5.2465  -25.7622 C   0  0  0  0  0  0  0  0  0  0  0  0
  -20.1945   -5.6708  -27.2287 C   0  0  0  0  0  0  0  0  0  0  0  0
  -23.0705   -2.8201  -25.6359 C   0  0  0  0  0  0  0  0  0  0  0  0
  -21.2035   -4.4710  -25.2478 C   0  0  2  0  0  0  0  0  0  0  0  0
  -23.4296   -3.1528  -24.1849 C   0  0  1  0  0  0  0  0  0  0  0  0
  -21.0487   -3.5458  -24.0058 C   0  0  2  0  0  0  0  0  0  0  0  0
  -19.8689   -4.9445  -25.8997 C   0  0  0  0  0  0  0  0  0  0  0  0
  -24.3970   -4.3297  -24.0734 C   0  0  0  0  0  0  0  0  0  0  0  0
  -20.0818   -4.0233  -22.9288 C   0  0  0  0  0  0  0  0  0  0  0  0
  -20.9376   -6.2270  -32.5187 C   0  0  0  0  0  0  0  0  0  0  0  0
  -22.8811   -3.2860  -32.0843 N   0  0  0  0  0  0  0  0  0  0  0  0
  -17.5775   -4.0923  -26.2461 N   0  0  0  0  0  0  0  0  0  0  0  0
  -17.8422   -6.1541  -25.1656 N   0  0  0  0  0  0  0  0  0  0  0  0
  -22.1016   -3.7678  -26.2014 N   0  0  3  0  0  0  0  0  0  0  0  0
  -19.7968   -9.8355  -35.5422 O   0  0  0  0  0  0  0  0  0  0  0  0
  -19.3242   -2.6408  -26.4930 O   0  0  0  0  0  0  0  0  0  0  0  0
  -19.8768   -6.8650  -24.4004 O   0  0  0  0  0  0  0  0  0  0  0  0
  -15.7622   -5.4337  -25.8212 O   0  0  0  0  0  0  0  0  0  0  0  0
  -23.2952   -2.7720  -30.8609 O   0  0  0  0  0  0  0  0  0  0  0  0
  -19.7405   -5.9007  -34.5850 O   0  0  0  0  0  0  0  0  0  0  0  0
  -22.3102   -3.4041  -23.3409 O   0  0  0  0  0  0  0  0  0  0  0  0
  -18.5430   -8.0338  -37.3105 O   0  0  0  0  0  0  0  0  0  0  0  0
  -21.3762   -4.8843  -32.7812 O   0  0  0  0  0  0  0  0  0  0  0  0
  -23.5681   -2.1591  -28.1123 F   0  0  0  0  0  0  0  0  0  0  0  0
  -20.2711   -5.8191  -29.9164 H   0  0  0  0  0  0  0  0  0  0  0  0
  -20.8666   -8.8513  -33.3493 H   0  0  0  0  0  0  0  0  0  0  0  0
  -18.7290   -5.5435  -36.3069 H   0  0  0  0  0  0  0  0  0  0  0  0
  -20.7077   -6.6231  -27.0368 H   0  0  0  0  0  0  0  0  0  0  0  0
  -19.2617   -5.9170  -27.7542 H   0  0  0  0  0  0  0  0  0  0  0  0
  -23.9842   -2.8700  -26.2638 H   0  0  0  0  0  0  0  0  0  0  0  0
  -22.7747   -1.7600  -25.6681 H   0  0  0  0  0  0  0  0  0  0  0  0
  -21.7669   -5.3608  -24.9266 H   0  0  0  0  0  0  0  0  0  0  0  0
  -23.9878   -2.2574  -23.7396 H   0  0  0  0  0  0  0  0  0  0  0  0
  -20.7199   -2.5349  -24.3092 H   0  0  0  0  0  0  0  0  0  0  0  0
  -23.9368   -5.2303  -24.4798 H   0  0  0  0  0  0  0  0  0  0  0  0
  -25.3093   -4.1164  -24.6304 H   0  0  0  0  0  0  0  0  0  0  0  0
  -24.6530   -4.5040  -23.0282 H   0  0  0  0  0  0  0  0  0  0  0  0
  -20.3620   -5.0214  -22.5923 H   0  0  0  0  0  0  0  0  0  0  0  0
  -20.1066   -3.3430  -22.0775 H   0  0  0  0  0  0  0  0  0  0  0  0
  -19.0674   -4.0557  -23.3265 H   0  0  0  0  0  0  0  0  0  0  0  0
  -20.2062   -6.2040  -31.7060 H   0  0  0  0  0  0  0  0  0  0  0  0
  -21.8018   -6.8136  -32.1958 H   0  0  0  0  0  0  0  0  0  0  0  0
  -16.9595   -3.4059  -26.6678 H   0  0  0  0  0  0  0  0  0  0  0  0
  -17.4103   -6.9538  -24.7119 H   0  0  0  0  0  0  0  0  0  0  0  0
  -18.6255   -8.9888  -37.4188 H   0  0  0  0  0  0  0  0  0  0  0  0
  1  2  2  0  0  0  0
  1  3  1  0  0  0  0
  2  5  1  0  0  0  0
  2  7  1  0  0  0  0
  3  4  2  0  0  0  0
  3 16  1  0  0  0  0
  4  6  1  0  0  0  0
  4 28  1  0  0  0  0
  5  6  2  0  0  0  0
  5 33  1  0  0  0  0
  6 38  1  0  0  0  0
  7 25  2  0  0  0  0
  7 37  1  0  0  0  0
  8 11  2  0  0  0  0
  8 12  1  0  0  0  0
  9 10  2  0  0  0  0
  9 34  1  0  0  0  0
 10 12  1  0  0  0  0
 10 36  1  0  0  0  0
 11 24  1  0  0  0  0
 11 34  1  0  0  0  0
 12 29  2  0  0  0  0
 13 21  1  0  0  0  0
 13 26  1  0  0  0  0
 13 30  2  0  0  0  0
 14 21  1  0  0  0  0
 14 27  1  0  0  0  0
 14 31  2  0  0  0  0
 15 26  1  0  0  0  0
 15 27  1  0  0  0  0
 15 32  2  0  0  0  0
 16 21  1  0  0  0  0
 17 19  1  0  0  0  0
 17 28  1  0  0  0  0
 18 20  1  0  0  0  0
 18 21  1  0  0  0  0
 18 28  1  0  0  0  0
 19 22  1  0  0  0  0
 19 35  1  0  0  0  0
 20 23  1  0  0  0  0
 20 35  1  0  0  0  0
 24 37  1  0  0  0  0
 25 33  1  0  0  0  0
  1 39  1  0  0  0  0
  8 40  1  0  0  0  0
  9 41  1  0  0  0  0
 16 42  1  0  0  0  0
 16 43  1  0  0  0  0
 17 44  1  0  0  0  0
 17 45  1  0  0  0  0
 18 46  1  0  0  0  0
 19 47  1  0  0  0  0
 20 48  1  0  0  0  0
 22 49  1  0  0  0  0
 22 50  1  0  0  0  0
 22 51  1  0  0  0  0
 23 52  1  0  0  0  0
 23 53  1  0  0  0  0
 23 54  1  0  0  0  0
 24 55  1  0  0  0  0
 24 56  1  0  0  0  0
 26 57  1  0  0  0  0
 27 58  1  0  0  0  0
 36 59  1  0  0  0  0
M  END
> <SMILES>
CC1CN2C(C(C)O1)C1(Cc3cc4c(noc4c(c32)F)OCC2=CC(=O)C(=CO2)O)C(=O)NC(=O)NC1=O

> <FORMATTED_ID>
H3D-006962

> <MOLFORMULA>
C24H21FN4O9

> <Exact Mass>
528.13

> <XLogP>
-0.11

> <TPSA_NOPS>
169.8

> <s_m_source_file>
ligprep_h3d.sdf

> <i_m_source_file_index>
1109

> <i_lp_mmshare_version>
55123

> <i_f3d_flags>
0

> <s_epik_input>
Tz1DMVtOSF1DKD1PKVtOSF1DKD1PKUMxMltDQEBIXTNOKFtDSDJdW0NAQEhdKFtDSDNdKU9bQ0BIXTNbQ0gzXSljNGMoW0NIMl0yKVtjSF1jNWMoYzRGKW9uYzVPW0NIMl1jNltjSF1jKD1PKWMoW2NIXW82KVtPSF0=

> <s_epik_cmdline>
J2VwaWtfcHl0aG9uJywgJy1waHQnLCAnMC41JywgJy1waCcsICc3LjUnLCAnLXRuJywgJzgnLCAnLW1hJywgJzUwMCcsICctaW1hZScsICc8aW5maWxlLm1hZT4nLCAnLW9tYWUnLCAnPG91dGZpbGUubWFlPic=

> <r_lp_tautomer_probability>
1

> <r_epik_Ionization_Penalty>
0.591566

> <r_epik_Ionization_Penalty_Charging>
0

> <r_epik_Ionization_Penalty_Neutral>
0.591566

> <r_epik_State_Penalty>
0.579285

> <r_epik_Charging_Adjusted_Penalty>
0.579285

> <i_epik_Tot_Q>
0

> <i_epik_Tot_abs_Q>
0

> <s_lp_Force_Field>
S-OPLS

> <r_lp_Energy>
47.7675

> <b_lp_Chiralities_Consistent>
1

> <s_lp_Variant>
ligprep_h3d.sdf:1109-1

> <ROCS_ShapeQuery>
_7L13

> <ROCS_TanimotoCombo>
0.795 

> <ROCS_ShapeTanimoto>
0.681 

> <ROCS_ColorTanimoto>
0.114 

> <ROCS_RefTversky>
0.841 

> <ROCS_RefColorTversky>
0.292 

> <ROCS_RefTverskyCombo>
1.133 

> <ROCS_FitTversky>
0.782 

> <ROCS_FitColorTversky>
0.157 

> <ROCS_FitTverskyCombo>
0.939 

> <ROCS_ColorScore>
-2.763

> <ROCS_Overlap>
1402.589

> <ROCS_Rank>
6                   

$$$$
ligprep_h3d.sdf:2381_1937
  -OEChem-08212117123D

102106  0     1  0  0  0  0  0999 V2000
  -24.5950   -4.7690  -25.1573 C   0  0  0  0  0  0  0  0  0  0  0  0
  -24.0924   -3.7097  -23.0449 C   0  0  0  0  0  0  0  0  0  0  0  0
  -25.6692   -5.4353  -24.5676 C   0  0  0  0  0  0  0  0  0  0  0  0
  -25.1666   -4.3759  -22.4552 C   0  0  0  0  0  0  0  0  0  0  0  0
  -23.8066   -3.9062  -24.3959 C   0  0  0  0  0  0  0  0  0  0  0  0
  -25.9550   -5.2387  -23.2166 C   0  0  0  0  0  0  0  0  0  0  0  0
  -21.4896   -4.1251  -29.5478 C   0  0  0  0  0  0  0  0  0  0  0  0
  -17.9751   -5.5673  -26.3102 C   0  0  0  0  0  0  0  0  0  0  0  0
  -21.0132   -4.1993  -28.2996 C   0  0  0  0  0  0  0  0  0  0  0  0
  -16.7433   -5.2812  -25.8476 C   0  0  0  0  0  0  0  0  0  0  0  0
  -21.5407   -3.2680  -27.2544 C   0  0  0  0  0  0  0  0  0  0  0  0
  -23.1050   -0.8618  -29.6078 C   0  0  0  0  0  0  0  0  0  0  0  0
  -20.2649   -4.2203  -35.7282 C   0  0  0  0  0  0  0  0  0  0  0  0
  -19.3674   -8.5479  -36.1123 C   0  0  0  0  0  0  0  0  0  0  0  0
  -21.1261   -3.8141  -34.5196 C   0  0  0  0  0  0  0  0  0  0  0  0
  -19.7247   -7.9133  -34.7566 C   0  0  0  0  0  0  0  0  0  0  0  0
  -19.7506   -5.7383  -30.7324 C   0  0  0  0  0  0  0  0  0  0  0  0
  -22.5343   -3.3034  -31.5673 C   0  0  0  0  0  0  0  0  0  0  0  0
  -21.0755   -4.9795  -30.7210 C   0  0  2  0  0  0  0  0  0  0  0  0
  -22.5015   -3.1068  -30.0354 C   0  0  2  0  0  0  0  0  0  0  0  0
  -20.2159   -5.7363  -35.8916 C   0  0  1  0  0  0  0  0  0  0  0  0
  -19.8106   -5.6772  -33.3133 C   0  0  1  0  0  0  0  0  0  0  0  0
  -19.7356   -6.2783  -37.2653 C   0  0  1  0  0  0  0  0  0  0  0  0
  -19.9658   -7.8114  -37.3132 C   0  0  2  0  0  0  0  0  0  0  0  0
  -19.6153   -6.5499  -32.0369 C   0  0  2  0  0  0  0  0  0  0  0  0
  -19.4417   -6.3901  -34.6953 C   0  0  1  0  0  0  0  0  0  0  0  0
  -21.1342   -4.8043  -33.3019 C   0  0  1  0  0  0  0  0  0  0  0  0
  -21.1863   -3.9927  -31.9173 C   0  0  1  0  0  0  0  0  0  0  0  0
  -15.7855   -6.3907  -25.5018 C   0  0  0  0  0  0  0  0  0  0  0  0
  -16.1947   -3.9008  -25.6216 C   0  0  0  0  0  0  0  0  0  0  0  0
  -22.5331    0.4866  -29.2906 C   0  0  0  0  0  0  0  0  0  0  0  0
  -20.4315   -5.5951  -38.4499 C   0  0  0  0  0  0  0  0  0  0  0  0
  -17.8937   -6.2027  -34.8441 C   0  0  0  0  0  0  0  0  0  0  0  0
  -22.3989   -5.7067  -33.4401 C   0  0  0  0  0  0  0  0  0  0  0  0
  -20.0671   -2.8922  -31.8405 C   0  0  0  0  0  0  0  0  0  0  0  0
  -21.5108   -2.9027  -24.0471 C   0  0  0  0  0  0  0  0  0  0  0  0
  -19.0618   -4.6091  -26.7145 C   0  0  0  0  0  0  0  0  0  0  0  0
  -19.8916   -5.1255  -27.8980 C   0  0  0  0  0  0  0  0  0  0  0  0
  -22.6413   -3.1823  -25.0353 C   0  0  1  0  0  0  0  0  0  0  0  0
  -22.1338   -3.9047  -26.1788 N   0  0  0  0  0  0  0  0  0  0  0  0
  -21.3800   -2.0548  -27.3624 O   0  0  0  0  0  0  0  0  0  0  0  0
  -24.3014   -1.0870  -29.7309 O   0  0  0  0  0  0  0  0  0  0  0  0
  -21.3629   -8.1145  -37.3384 O   0  0  0  0  0  0  0  0  0  0  0  0
  -20.5567   -7.6189  -32.0044 O   0  0  0  0  0  0  0  0  0  0  0  0
  -22.0973   -1.7793  -29.7339 O   0  0  0  0  0  0  0  0  0  0  0  0
  -26.9882   -5.8765  -22.6508 F   0  0  0  0  0  0  0  0  0  0  0  0
  -24.3796   -4.9291  -26.2105 H   0  0  0  0  0  0  0  0  0  0  0  0
  -23.4838   -3.0391  -22.4439 H   0  0  0  0  0  0  0  0  0  0  0  0
  -26.2835   -6.1064  -25.1603 H   0  0  0  0  0  0  0  0  0  0  0  0
  -25.3892   -4.2235  -21.4033 H   0  0  0  0  0  0  0  0  0  0  0  0
  -18.2457   -6.6166  -26.4244 H   0  0  0  0  0  0  0  0  0  0  0  0
  -20.6923   -3.7313  -36.6093 H   0  0  0  0  0  0  0  0  0  0  0  0
  -19.2550   -3.8106  -35.6178 H   0  0  0  0  0  0  0  0  0  0  0  0
  -18.2787   -8.5982  -36.2221 H   0  0  0  0  0  0  0  0  0  0  0  0
  -19.7226   -9.5862  -36.1038 H   0  0  0  0  0  0  0  0  0  0  0  0
  -20.7984   -2.8118  -34.2356 H   0  0  0  0  0  0  0  0  0  0  0  0
  -22.1562   -3.6651  -34.8702 H   0  0  0  0  0  0  0  0  0  0  0  0
  -20.7852   -8.1042  -34.5566 H   0  0  0  0  0  0  0  0  0  0  0  0
  -19.1550   -8.4450  -33.9856 H   0  0  0  0  0  0  0  0  0  0  0  0
  -18.9031   -5.0517  -30.6291 H   0  0  0  0  0  0  0  0  0  0  0  0
  -19.7160   -6.4218  -29.8752 H   0  0  0  0  0  0  0  0  0  0  0  0
  -23.3838   -3.9524  -31.8025 H   0  0  0  0  0  0  0  0  0  0  0  0
  -22.6719   -2.3633  -32.1121 H   0  0  0  0  0  0  0  0  0  0  0  0
  -21.8700   -5.7343  -30.7751 H   0  0  0  0  0  0  0  0  0  0  0  0
  -23.4919   -3.2830  -29.6060 H   0  0  0  0  0  0  0  0  0  0  0  0
  -21.2621   -6.0538  -35.8463 H   0  0  0  0  0  0  0  0  0  0  0  0
  -19.0182   -4.9268  -33.2119 H   0  0  0  0  0  0  0  0  0  0  0  0
  -18.6650   -6.0831  -37.3875 H   0  0  0  0  0  0  0  0  0  0  0  0
  -19.5312   -8.2262  -38.2307 H   0  0  0  0  0  0  0  0  0  0  0  0
  -18.6173   -7.0023  -32.0541 H   0  0  0  0  0  0  0  0  0  0  0  0
  -15.1854   -6.6599  -26.3774 H   0  0  0  0  0  0  0  0  0  0  0  0
  -15.0943   -6.1118  -24.6995 H   0  0  0  0  0  0  0  0  0  0  0  0
  -16.3365   -7.2774  -25.1713 H   0  0  0  0  0  0  0  0  0  0  0  0
  -16.3819   -3.5112  -24.6195 H   0  0  0  0  0  0  0  0  0  0  0  0
  -16.6400   -3.1993  -26.3350 H   0  0  0  0  0  0  0  0  0  0  0  0
  -15.1095   -3.8993  -25.7704 H   0  0  0  0  0  0  0  0  0  0  0  0
  -22.4556    0.6113  -28.2077 H   0  0  0  0  0  0  0  0  0  0  0  0
  -23.1623    1.2678  -29.7246 H   0  0  0  0  0  0  0  0  0  0  0  0
  -21.5316    0.5666  -29.7233 H   0  0  0  0  0  0  0  0  0  0  0  0
  -21.5038   -5.7559  -38.3816 H   0  0  0  0  0  0  0  0  0  0  0  0
  -20.0606   -6.0168  -39.3798 H   0  0  0  0  0  0  0  0  0  0  0  0
  -20.2228   -4.5292  -38.4266 H   0  0  0  0  0  0  0  0  0  0  0  0
  -17.6834   -5.1481  -34.8032 H   0  0  0  0  0  0  0  0  0  0  0  0
  -17.6007   -6.6184  -35.7925 H   0  0  0  0  0  0  0  0  0  0  0  0
  -17.4186   -6.7232  -34.0308 H   0  0  0  0  0  0  0  0  0  0  0  0
  -22.4157   -6.3923  -32.6082 H   0  0  0  0  0  0  0  0  0  0  0  0
  -22.3303   -6.2415  -34.3737 H   0  0  0  0  0  0  0  0  0  0  0  0
  -23.2693   -5.0704  -33.4278 H   0  0  0  0  0  0  0  0  0  0  0  0
  -19.1316   -3.3628  -32.0818 H   0  0  0  0  0  0  0  0  0  0  0  0
  -20.0613   -2.5042  -30.8385 H   0  0  0  0  0  0  0  0  0  0  0  0
  -20.3141   -2.1272  -32.5537 H   0  0  0  0  0  0  0  0  0  0  0  0
  -21.1215   -3.8331  -23.6195 H   0  0  0  0  0  0  0  0  0  0  0  0
  -20.6832   -2.3864  -24.5465 H   0  0  0  0  0  0  0  0  0  0  0  0
  -21.8379   -2.2618  -23.2206 H   0  0  0  0  0  0  0  0  0  0  0  0
  -19.7188   -4.3452  -25.8812 H   0  0  0  0  0  0  0  0  0  0  0  0
  -18.5784   -3.6707  -27.0154 H   0  0  0  0  0  0  0  0  0  0  0  0
  -19.2266   -5.2743  -28.7582 H   0  0  0  0  0  0  0  0  0  0  0  0
  -20.2887   -6.1201  -27.6550 H   0  0  0  0  0  0  0  0  0  0  0  0
  -22.9885   -2.2187  -25.4281 H   0  0  0  0  0  0  0  0  0  0  0  0
  -22.2154   -4.9170  -26.1936 H   0  0  0  0  0  0  0  0  0  0  0  0
  -21.4306   -9.0762  -37.4300 H   0  0  0  0  0  0  0  0  0  0  0  0
  -20.3363   -8.1580  -31.2289 H   0  0  0  0  0  0  0  0  0  0  0  0
  1  3  1  0  0  0  0
  1  5  2  0  0  0  0
  2  4  2  0  0  0  0
  2  5  1  0  0  0  0
  3  6  2  0  0  0  0
  4  6  1  0  0  0  0
  5 39  1  0  0  0  0
  6 46  1  0  0  0  0
  7  9  2  0  0  0  0
  7 19  1  0  0  0  0
  7 20  1  0  0  0  0
  8 10  2  0  0  0  0
  8 37  1  0  0  0  0
  9 11  1  0  0  0  0
  9 38  1  0  0  0  0
 10 29  1  0  0  0  0
 10 30  1  0  0  0  0
 11 40  1  0  0  0  0
 11 41  2  0  0  0  0
 12 31  1  0  0  0  0
 12 42  2  0  0  0  0
 12 45  1  0  0  0  0
 13 15  1  0  0  0  0
 13 21  1  0  0  0  0
 14 16  1  0  0  0  0
 14 24  1  0  0  0  0
 15 27  1  0  0  0  0
 16 26  1  0  0  0  0
 17 19  1  0  0  0  0
 17 25  1  0  0  0  0
 18 20  1  0  0  0  0
 18 28  1  0  0  0  0
 19 28  1  0  0  0  0
 20 45  1  0  0  0  0
 21 23  1  0  0  0  0
 21 26  1  0  0  0  0
 22 25  1  0  0  0  0
 22 26  1  0  0  0  0
 22 27  1  0  0  0  0
 23 24  1  0  0  0  0
 23 32  1  0  0  0  0
 24 43  1  0  0  0  0
 25 44  1  0  0  0  0
 26 33  1  0  0  0  0
 27 28  1  0  0  0  0
 27 34  1  0  0  0  0
 28 35  1  0  0  0  0
 36 39  1  0  0  0  0
 37 38  1  0  0  0  0
 39 40  1  0  0  0  0
  1 47  1  0  0  0  0
  2 48  1  0  0  0  0
  3 49  1  0  0  0  0
  4 50  1  0  0  0  0
  8 51  1  0  0  0  0
 13 52  1  0  0  0  0
 13 53  1  0  0  0  0
 14 54  1  0  0  0  0
 14 55  1  0  0  0  0
 15 56  1  0  0  0  0
 15 57  1  0  0  0  0
 16 58  1  0  0  0  0
 16 59  1  0  0  0  0
 17 60  1  0  0  0  0
 17 61  1  0  0  0  0
 18 62  1  0  0  0  0
 18 63  1  0  0  0  0
 19 64  1  0  0  0  0
 20 65  1  0  0  0  0
 21 66  1  0  0  0  0
 22 67  1  0  0  0  0
 23 68  1  0  0  0  0
 24 69  1  0  0  0  0
 25 70  1  0  0  0  0
 29 71  1  0  0  0  0
 29 72  1  0  0  0  0
 29 73  1  0  0  0  0
 30 74  1  0  0  0  0
 30 75  1  0  0  0  0
 30 76  1  0  0  0  0
 31 77  1  0  0  0  0
 31 78  1  0  0  0  0
 31 79  1  0  0  0  0
 32 80  1  0  0  0  0
 32 81  1  0  0  0  0
 32 82  1  0  0  0  0
 33 83  1  0  0  0  0
 33 84  1  0  0  0  0
 33 85  1  0  0  0  0
 34 86  1  0  0  0  0
 34 87  1  0  0  0  0
 34 88  1  0  0  0  0
 35 89  1  0  0  0  0
 35 90  1  0  0  0  0
 35 91  1  0  0  0  0
 36 92  1  0  0  0  0
 36 93  1  0  0  0  0
 36 94  1  0  0  0  0
 37 95  1  0  0  0  0
 37 96  1  0  0  0  0
 38 97  1  0  0  0  0
 38 98  1  0  0  0  0
 39 99  1  0  0  0  0
 40100  1  0  0  0  0
 43101  1  0  0  0  0
 44102  1  0  0  0  0
M  END
> <SMILES>
C[C@@H](NC(=O)/C(=C/1\[C@H](C[C@@]2(C)[C@H]1C[C@@H](O)[C@H]1[C@@]3(C)CC[C@@H](O)[C@@H](C)[C@@H]3CC[C@@]12C)OC(=O)C)CCC=C(C)C)c1ccc(cc1)F

> <FORMATTED_ID>
H3D-005470

> <MOLFORMULA>
C39H56FNO5

> <Exact Mass>
637.41

> <XLogP>
7.65

> <TPSA_NOPS>
95.9

> <s_m_source_file>
ligprep_h3d.sdf

> <i_m_source_file_index>
2381

> <i_lp_mmshare_version>
55123

> <i_f3d_flags>
0

> <s_epik_input>
W2NIXTFbY0hdYyhGKVtjSF1bY0hdYzFbQ0BASF0oW0NIM10pW05IXUMoPU8pL0MoW0NIMl1bQ0gyXVtDSF09QyhbQ0gzXSlbQ0gzXSk9QyhcW0NASF0oW0NIMl0yKU9DKD1PKVtDSDNdKVtDQEBIXShbQ0BdMjNbQ0gzXSlbQ0gyXVtDQEBIXShbT0hdKVtDQEhdNFtDQF01KFtDSDNdKVtDQEhdKFtDQEhdKFtDSDNdKVtDQEhdKFtPSF0pW0NIMl1bQ0gyXTUpW0NIMl1bQ0gyXVtDQF0zNFtDSDNd

> <s_epik_cmdline>
J2VwaWtfcHl0aG9uJywgJy1waHQnLCAnMC41JywgJy1waCcsICc3LjUnLCAnLXRuJywgJzgnLCAnLW1hJywgJzUwMCcsICctaW1hZScsICc8aW5maWxlLm1hZT4nLCAnLW9tYWUnLCAnPG91dGZpbGUubWFlPic=

> <r_lp_tautomer_probability>
1

> <r_epik_Ionization_Penalty>
1.59239e-06

> <r_epik_Ionization_Penalty_Charging>
0

> <r_epik_Ionization_Penalty_Neutral>
1.59239e-06

> <r_epik_State_Penalty>
-0

> <r_epik_Charging_Adjusted_Penalty>
0

> <i_epik_Tot_Q>
0

> <i_epik_Tot_abs_Q>
0

> <s_epik_Chemistry_Notes>
This compound has an ester and may undergo hydrolysis at high or low pH.

> <s_lp_Force_Field>
S-OPLS

> <r_lp_Energy>
84.1063

> <b_lp_Chiralities_Consistent>
1

> <s_lp_Variant>
ligprep_h3d.sdf:2381-1

> <ROCS_ShapeQuery>
_7L13

> <ROCS_TanimotoCombo>
0.732 

> <ROCS_ShapeTanimoto>
0.621 

> <ROCS_ColorTanimoto>
0.112 

> <ROCS_RefTversky>
0.839 

> <ROCS_RefColorTversky>
0.250 

> <ROCS_RefTverskyCombo>
1.090 

> <ROCS_FitTversky>
0.704 

> <ROCS_FitColorTversky>
0.168 

> <ROCS_FitTverskyCombo>
0.872 

> <ROCS_ColorScore>
-2.316

> <ROCS_Overlap>
1408.796

> <ROCS_Rank>
7                   

$$$$
ligprep_h3d.sdf:1109_1187
  -OEChem-08212117123D

 58 63  0     1  0  0  0  0  0999 V2000
  -20.9848   -5.1039  -29.5204 C   0  0  0  0  0  0  0  0  0  0  0  0
  -21.7659   -4.3400  -30.3902 C   0  0  0  0  0  0  0  0  0  0  0  0
  -21.0940   -4.8736  -28.1279 C   0  0  0  0  0  0  0  0  0  0  0  0
  -21.9928   -3.9271  -27.5814 C   0  0  0  0  0  0  0  0  0  0  0  0
  -22.6144   -3.3967  -29.8537 C   0  0  0  0  0  0  0  0  0  0  0  0
  -22.7580   -3.1554  -28.4872 C   0  0  0  0  0  0  0  0  0  0  0  0
  -21.9678   -4.2220  -31.7780 C   0  0  0  0  0  0  0  0  0  0  0  0
  -19.7468   -6.1457  -34.6675 C   0  0  0  0  0  0  0  0  0  0  0  0
  -20.0580   -8.8876  -34.9180 C   0  0  0  0  0  0  0  0  0  0  0  0
  -19.3988   -8.3010  -35.9231 C   0  0  0  0  0  0  0  0  0  0  0  0
  -20.3883   -6.8625  -33.7326 C   0  0  0  0  0  0  0  0  0  0  0  0
  -19.1947   -6.8357  -35.8555 C   0  0  0  0  0  0  0  0  0  0  0  0
  -18.9033   -3.7735  -26.2556 C   0  0  0  0  0  0  0  0  0  0  0  0
  -19.1987   -5.9975  -25.0441 C   0  0  0  0  0  0  0  0  0  0  0  0
  -17.0362   -5.0946  -25.8689 C   0  0  0  0  0  0  0  0  0  0  0  0
  -20.2272   -5.6993  -27.2153 C   0  0  0  0  0  0  0  0  0  0  0  0
  -23.0676   -2.8192  -25.6320 C   0  0  0  0  0  0  0  0  0  0  0  0
  -21.1894   -4.4593  -25.2455 C   0  0  2  0  0  0  0  0  0  0  0  0
  -23.4243   -3.1544  -24.1808 C   0  0  1  0  0  0  0  0  0  0  0  0
  -21.0400   -3.5310  -24.0045 C   0  0  2  0  0  0  0  0  0  0  0  0
  -19.8606   -4.9399  -25.9162 C   0  0  2  0  0  0  0  0  0  0  0  0
  -24.3884   -4.3340  -24.0703 C   0  0  0  0  0  0  0  0  0  0  0  0
  -20.0664   -3.9933  -22.9278 C   0  0  0  0  0  0  0  0  0  0  0  0
  -20.9721   -6.2543  -32.5088 C   0  0  0  0  0  0  0  0  0  0  0  0
  -22.8666   -3.2806  -32.0812 N   0  0  0  0  0  0  0  0  0  0  0  0
  -17.6373   -4.0996  -26.5225 N   0  5  0  0  0  0  0  0  0  0  0  0
  -17.8199   -5.9608  -25.1088 N   0  0  0  0  0  0  0  0  0  0  0  0
  -22.0966   -3.7641  -26.1978 N   0  0  3  0  0  0  0  0  0  0  0  0
  -18.6013   -6.2198  -36.7328 O   0  0  0  0  0  0  0  0  0  0  0  0
  -19.3316   -2.6265  -26.3815 O   0  0  0  0  0  0  0  0  0  0  0  0
  -19.8163   -6.8487  -24.4081 O   0  0  0  0  0  0  0  0  0  0  0  0
  -15.8194   -5.2928  -25.9232 O   0  0  0  0  0  0  0  0  0  0  0  0
  -23.2731   -2.7578  -30.8591 O   0  0  0  0  0  0  0  0  0  0  0  0
  -20.5646   -8.2352  -33.8199 O   0  0  0  0  0  0  0  0  0  0  0  0
  -22.3034   -3.4056  -23.3382 O   0  0  0  0  0  0  0  0  0  0  0  0
  -18.9150   -9.0085  -36.9968 O   0  0  0  0  0  0  0  0  0  0  0  0
  -21.3882   -4.9051  -32.7741 O   0  0  0  0  0  0  0  0  0  0  0  0
  -23.5385   -2.1365  -28.1078 F   0  0  0  0  0  0  0  0  0  0  0  0
  -20.2997   -5.8527  -29.9072 H   0  0  0  0  0  0  0  0  0  0  0  0
  -19.6128   -5.0731  -34.5918 H   0  0  0  0  0  0  0  0  0  0  0  0
  -20.2629   -9.9476  -34.8650 H   0  0  0  0  0  0  0  0  0  0  0  0
  -20.7737   -6.6240  -26.9850 H   0  0  0  0  0  0  0  0  0  0  0  0
  -19.3145   -6.0019  -27.7454 H   0  0  0  0  0  0  0  0  0  0  0  0
  -23.9814   -2.8712  -26.2591 H   0  0  0  0  0  0  0  0  0  0  0  0
  -22.7725   -1.7587  -25.6655 H   0  0  0  0  0  0  0  0  0  0  0  0
  -21.7483   -5.3506  -24.9176 H   0  0  0  0  0  0  0  0  0  0  0  0
  -23.9839   -2.2614  -23.7331 H   0  0  0  0  0  0  0  0  0  0  0  0
  -20.7272   -2.5153  -24.3066 H   0  0  0  0  0  0  0  0  0  0  0  0
  -23.9266   -5.2328  -24.4792 H   0  0  0  0  0  0  0  0  0  0  0  0
  -25.3021   -4.1221  -24.6258 H   0  0  0  0  0  0  0  0  0  0  0  0
  -24.6428   -4.5111  -23.0252 H   0  0  0  0  0  0  0  0  0  0  0  0
  -20.3305   -4.9961  -22.5918 H   0  0  0  0  0  0  0  0  0  0  0  0
  -20.1024   -3.3141  -22.0760 H   0  0  0  0  0  0  0  0  0  0  0  0
  -19.0513   -4.0091  -23.3249 H   0  0  0  0  0  0  0  0  0  0  0  0
  -20.2408   -6.2419  -31.6956 H   0  0  0  0  0  0  0  0  0  0  0  0
  -21.8461   -6.8259  -32.1853 H   0  0  0  0  0  0  0  0  0  0  0  0
  -17.3224   -6.6394  -24.5402 H   0  0  0  0  0  0  0  0  0  0  0  0
  -18.4715   -8.4145  -37.6141 H   0  0  0  0  0  0  0  0  0  0  0  0
  1  2  2  0  0  0  0
  1  3  1  0  0  0  0
  2  5  1  0  0  0  0
  2  7  1  0  0  0  0
  3  4  2  0  0  0  0
  3 16  1  0  0  0  0
  4  6  1  0  0  0  0
  4 28  1  0  0  0  0
  5  6  2  0  0  0  0
  5 33  1  0  0  0  0
  6 38  1  0  0  0  0
  7 25  2  0  0  0  0
  7 37  1  0  0  0  0
  8 11  2  0  0  0  0
  8 12  1  0  0  0  0
  9 10  2  0  0  0  0
  9 34  1  0  0  0  0
 10 12  1  0  0  0  0
 10 36  1  0  0  0  0
 11 24  1  0  0  0  0
 11 34  1  0  0  0  0
 12 29  2  0  0  0  0
 13 21  1  0  0  0  0
 13 26  1  0  0  0  0
 13 30  2  0  0  0  0
 14 21  1  0  0  0  0
 14 27  1  0  0  0  0
 14 31  2  0  0  0  0
 15 26  1  0  0  0  0
 15 27  1  0  0  0  0
 15 32  2  0  0  0  0
 16 21  1  0  0  0  0
 17 19  1  0  0  0  0
 17 28  1  0  0  0  0
 18 20  1  0  0  0  0
 18 21  1  0  0  0  0
 18 28  1  0  0  0  0
 19 22  1  0  0  0  0
 19 35  1  0  0  0  0
 20 23  1  0  0  0  0
 20 35  1  0  0  0  0
 24 37  1  0  0  0  0
 25 33  1  0  0  0  0
  1 39  1  0  0  0  0
  8 40  1  0  0  0  0
  9 41  1  0  0  0  0
 16 42  1  0  0  0  0
 16 43  1  0  0  0  0
 17 44  1  0  0  0  0
 17 45  1  0  0  0  0
 18 46  1  0  0  0  0
 19 47  1  0  0  0  0
 20 48  1  0  0  0  0
 22 49  1  0  0  0  0
 22 50  1  0  0  0  0
 22 51  1  0  0  0  0
 23 52  1  0  0  0  0
 23 53  1  0  0  0  0
 23 54  1  0  0  0  0
 24 55  1  0  0  0  0
 24 56  1  0  0  0  0
 27 57  1  0  0  0  0
 36 58  1  0  0  0  0
M  CHG  1  26  -1
M  END
> <SMILES>
CC1CN2C(C(C)O1)C1(Cc3cc4c(noc4c(c32)F)OCC2=CC(=O)C(=CO2)O)C(=O)NC(=O)NC1=O

> <FORMATTED_ID>
H3D-006962

> <MOLFORMULA>
C24H21FN4O9

> <Exact Mass>
528.13

> <XLogP>
-0.11

> <TPSA_NOPS>
169.8

> <s_m_source_file>
ligprep_h3d.sdf

> <i_m_source_file_index>
1109

> <i_lp_mmshare_version>
55123

> <i_f3d_flags>
0

> <s_epik_input>
Tz1DMVtOSF1DKD1PKVtOSF1DKD1PKUMxMltDQEBIXTNOKFtDSDJdW0NAQEhdKFtDSDNdKU9bQ0BIXTNbQ0gzXSljNGMoW0NIMl0yKVtjSF1jNWMoYzRGKW9uYzVPW0NIMl1jNltjSF1jKD1PKWMoW2NIXW82KVtPSF0=

> <s_epik_cmdline>
J2VwaWtfcHl0aG9uJywgJy1waHQnLCAnMC41JywgJy1waCcsICc3LjUnLCAnLXRuJywgJzgnLCAnLW1hJywgJzUwMCcsICctaW1hZScsICc8aW5maWxlLm1hZT4nLCAnLW9tYWUnLCAnPG91dGZpbGUubWFlPic=

> <r_lp_tautomer_probability>
1

> <r_epik_Ionization_Penalty>
0.677829

> <r_epik_Ionization_Penalty_Charging>
0.455373

> <r_epik_Ionization_Penalty_Neutral>
0.222456

> <r_epik_State_Penalty>
0.671321

> <r_epik_Charging_Adjusted_Penalty>
1.12669

> <i_epik_Tot_Q>
-1

> <i_epik_Tot_abs_Q>
1

> <s_lp_Force_Field>
S-OPLS

> <r_lp_Energy>
54.6459

> <b_lp_Chiralities_Consistent>
1

> <s_lp_Variant>
ligprep_h3d.sdf:1109-2

> <ROCS_ShapeQuery>
_7L13

> <ROCS_TanimotoCombo>
0.786 

> <ROCS_ShapeTanimoto>
0.677 

> <ROCS_ColorTanimoto>
0.109 

> <ROCS_RefTversky>
0.839 

> <ROCS_RefColorTversky>
0.291 

> <ROCS_RefTverskyCombo>
1.130 

> <ROCS_FitTversky>
0.778 

> <ROCS_FitColorTversky>
0.149 

> <ROCS_FitTverskyCombo>
0.927 

> <ROCS_ColorScore>
-2.767

> <ROCS_Overlap>
1399.695

> <ROCS_Rank>
8                   

$$$$
ligprep_h3d.sdf:2371_1188
  -OEChem-08212117123D

102106  0     1  0  0  0  0  0999 V2000
  -27.0662   -5.0461  -23.7064 C   0  0  0  0  0  0  0  0  0  0  0  0
  -26.5007   -5.0544  -24.9814 C   0  0  0  0  0  0  0  0  0  0  0  0
  -26.3396   -4.5492  -22.6243 C   0  0  0  0  0  0  0  0  0  0  0  0
  -25.2085   -4.5659  -25.1744 C   0  0  0  0  0  0  0  0  0  0  0  0
  -25.0474   -4.0607  -22.8173 C   0  0  0  0  0  0  0  0  0  0  0  0
  -24.4818   -4.0690  -24.0923 C   0  0  0  0  0  0  0  0  0  0  0  0
  -21.5065   -4.2853  -28.5261 C   0  0  0  0  0  0  0  0  0  0  0  0
  -17.9332   -5.7190  -25.2979 C   0  0  0  0  0  0  0  0  0  0  0  0
  -20.9250   -4.2995  -27.3209 C   0  0  0  0  0  0  0  0  0  0  0  0
  -16.6573   -5.3273  -25.4767 C   0  0  0  0  0  0  0  0  0  0  0  0
  -21.5056   -3.4769  -26.2144 C   0  0  0  0  0  0  0  0  0  0  0  0
  -23.4085   -1.4691  -27.7975 C   0  0  0  0  0  0  0  0  0  0  0  0
  -20.7319   -4.0539  -34.7259 C   0  0  0  0  0  0  0  0  0  0  0  0
  -20.0667   -8.2298  -35.3851 C   0  0  0  0  0  0  0  0  0  0  0  0
  -21.6422   -3.8815  -33.5000 C   0  0  0  0  0  0  0  0  0  0  0  0
  -19.7798   -7.6991  -33.9699 C   0  0  0  0  0  0  0  0  0  0  0  0
  -19.6290   -5.5642  -29.8854 C   0  0  0  0  0  0  0  0  0  0  0  0
  -22.8404   -3.6275  -30.4293 C   0  0  0  0  0  0  0  0  0  0  0  0
  -21.0598   -5.0486  -29.7498 C   0  0  2  0  0  0  0  0  0  0  0  0
  -22.7030   -3.4352  -28.9035 C   0  0  2  0  0  0  0  0  0  0  0  0
  -20.4806   -5.5350  -35.0056 C   0  0  1  0  0  0  0  0  0  0  0  0
  -19.9330   -5.5158  -32.4532 C   0  0  1  0  0  0  0  0  0  0  0  0
  -19.9616   -5.8741  -36.4338 C   0  0  1  0  0  0  0  0  0  0  0  0
  -19.5257   -7.3686  -36.5278 C   0  0  2  0  0  0  0  0  0  0  0  0
  -19.4689   -6.3392  -31.2086 C   0  0  2  0  0  0  0  0  0  0  0  0
  -19.5981   -6.1618  -33.8764 C   0  0  1  0  0  0  0  0  0  0  0  0
  -21.3747   -4.8675  -32.3083 C   0  0  1  0  0  0  0  0  0  0  0  0
  -21.4354   -4.0858  -30.9098 C   0  0  1  0  0  0  0  0  0  0  0  0
  -15.5232   -6.2638  -25.1529 C   0  0  0  0  0  0  0  0  0  0  0  0
  -16.2202   -3.9830  -25.9856 C   0  0  0  0  0  0  0  0  0  0  0  0
  -23.0509   -0.0300  -27.5799 C   0  0  0  0  0  0  0  0  0  0  0  0
  -20.9923   -5.5014  -37.5118 C   0  0  0  0  0  0  0  0  0  0  0  0
  -18.0809   -5.8486  -34.1045 C   0  0  0  0  0  0  0  0  0  0  0  0
  -22.4774   -5.9658  -32.3714 C   0  0  0  0  0  0  0  0  0  0  0  0
  -20.5055   -2.8188  -30.9106 C   0  0  0  0  0  0  0  0  0  0  0  0
  -22.1941   -3.7223  -23.0701 C   0  0  0  0  0  0  0  0  0  0  0  0
  -19.1911   -4.9399  -25.5683 C   0  0  0  0  0  0  0  0  0  0  0  0
  -19.6437   -5.0420  -27.0314 C   0  0  0  0  0  0  0  0  0  0  0  0
  -23.0796   -3.5390  -24.3009 C   0  0  1  0  0  0  0  0  0  0  0  0
  -22.4543   -4.1397  -25.4563 N   0  0  0  0  0  0  0  0  0  0  0  0
  -21.0955   -2.3381  -26.0034 O   0  0  0  0  0  0  0  0  0  0  0  0
  -24.3884   -2.0134  -27.3067 O   0  0  0  0  0  0  0  0  0  0  0  0
  -19.9177   -7.9546  -37.7688 O   0  0  0  0  0  0  0  0  0  0  0  0
  -20.1856   -7.5636  -31.0942 O   0  0  0  0  0  0  0  0  0  0  0  0
  -22.4841   -2.0624  -28.6138 O   0  0  0  0  0  0  0  0  0  0  0  0
  -28.0729   -5.4253  -23.5565 H   0  0  0  0  0  0  0  0  0  0  0  0
  -27.0667   -5.4403  -25.8242 H   0  0  0  0  0  0  0  0  0  0  0  0
  -26.7800   -4.5416  -21.6317 H   0  0  0  0  0  0  0  0  0  0  0  0
  -24.7758   -4.5765  -26.1713 H   0  0  0  0  0  0  0  0  0  0  0  0
  -24.4888   -3.6756  -21.9683 H   0  0  0  0  0  0  0  0  0  0  0  0
  -18.1091   -6.7250  -24.9179 H   0  0  0  0  0  0  0  0  0  0  0  0
  -21.2218   -3.5615  -35.5675 H   0  0  0  0  0  0  0  0  0  0  0  0
  -19.7891   -3.5264  -34.5669 H   0  0  0  0  0  0  0  0  0  0  0  0
  -19.6684   -9.2536  -35.4829 H   0  0  0  0  0  0  0  0  0  0  0  0
  -21.1613   -8.3335  -35.4906 H   0  0  0  0  0  0  0  0  0  0  0  0
  -21.5582   -2.8383  -33.2004 H   0  0  0  0  0  0  0  0  0  0  0  0
  -22.6817   -3.9863  -33.8283 H   0  0  0  0  0  0  0  0  0  0  0  0
  -20.6039   -8.0172  -33.3109 H   0  0  0  0  0  0  0  0  0  0  0  0
  -18.8794   -8.2182  -33.6026 H   0  0  0  0  0  0  0  0  0  0  0  0
  -18.9085   -4.7400  -29.8444 H   0  0  0  0  0  0  0  0  0  0  0  0
  -19.4021   -6.2310  -29.0448 H   0  0  0  0  0  0  0  0  0  0  0  0
  -23.5910   -4.4054  -30.6020 H   0  0  0  0  0  0  0  0  0  0  0  0
  -23.1770   -2.7200  -30.9423 H   0  0  0  0  0  0  0  0  0  0  0  0
  -21.7127   -5.9268  -29.7526 H   0  0  0  0  0  0  0  0  0  0  0  0
  -23.6117   -3.7659  -28.3928 H   0  0  0  0  0  0  0  0  0  0  0  0
  -21.4713   -5.9907  -34.9824 H   0  0  0  0  0  0  0  0  0  0  0  0
  -19.2678   -4.6444  -32.4248 H   0  0  0  0  0  0  0  0  0  0  0  0
  -19.0754   -5.2410  -36.6499 H   0  0  0  0  0  0  0  0  0  0  0  0
  -18.4139   -7.4174  -36.4950 H   0  0  0  0  0  0  0  0  0  0  0  0
  -18.4076   -6.5988  -31.3199 H   0  0  0  0  0  0  0  0  0  0  0  0
  -15.2617   -6.8607  -26.0330 H   0  0  0  0  0  0  0  0  0  0  0  0
  -14.6205   -5.7327  -24.8327 H   0  0  0  0  0  0  0  0  0  0  0  0
  -15.8123   -6.9435  -24.3445 H   0  0  0  0  0  0  0  0  0  0  0  0
  -16.0672   -3.2426  -25.1985 H   0  0  0  0  0  0  0  0  0  0  0  0
  -16.9713   -3.5804  -26.6734 H   0  0  0  0  0  0  0  0  0  0  0  0
  -15.2733   -4.0769  -26.5281 H   0  0  0  0  0  0  0  0  0  0  0  0
  -22.4045    0.0631  -26.7038 H   0  0  0  0  0  0  0  0  0  0  0  0
  -23.9602    0.5630  -27.4530 H   0  0  0  0  0  0  0  0  0  0  0  0
  -22.5102    0.3453  -28.4536 H   0  0  0  0  0  0  0  0  0  0  0  0
  -21.8965   -6.0855  -37.3654 H   0  0  0  0  0  0  0  0  0  0  0  0
  -20.5803   -5.7119  -38.4947 H   0  0  0  0  0  0  0  0  0  0  0  0
  -21.2282   -4.4436  -37.4367 H   0  0  0  0  0  0  0  0  0  0  0  0
  -17.9508   -4.7822  -34.0404 H   0  0  0  0  0  0  0  0  0  0  0  0
  -17.8120   -6.2124  -35.0809 H   0  0  0  0  0  0  0  0  0  0  0  0
  -17.5208   -6.3530  -33.3364 H   0  0  0  0  0  0  0  0  0  0  0  0
  -22.3122   -6.6556  -31.5594 H   0  0  0  0  0  0  0  0  0  0  0  0
  -22.3972   -6.4688  -33.3216 H   0  0  0  0  0  0  0  0  0  0  0  0
  -23.4374   -5.4847  -32.2740 H   0  0  0  0  0  0  0  0  0  0  0  0
  -19.5321   -3.1304  -31.2423 H   0  0  0  0  0  0  0  0  0  0  0  0
  -20.4721   -2.4398  -29.9057 H   0  0  0  0  0  0  0  0  0  0  0  0
  -20.9357   -2.1006  -31.5844 H   0  0  0  0  0  0  0  0  0  0  0  0
  -22.1059   -4.7808  -22.8016 H   0  0  0  0  0  0  0  0  0  0  0  0
  -21.1866   -3.3356  -23.2609 H   0  0  0  0  0  0  0  0  0  0  0  0
  -22.5856   -3.1844  -22.1995 H   0  0  0  0  0  0  0  0  0  0  0  0
  -20.0100   -5.2220  -24.9007 H   0  0  0  0  0  0  0  0  0  0  0  0
  -18.9803   -3.8862  -25.3450 H   0  0  0  0  0  0  0  0  0  0  0  0
  -18.8486   -4.6463  -27.6761 H   0  0  0  0  0  0  0  0  0  0  0  0
  -19.7476   -6.1004  -27.3051 H   0  0  0  0  0  0  0  0  0  0  0  0
  -23.1300   -2.4653  -24.5201 H   0  0  0  0  0  0  0  0  0  0  0  0
  -22.7209   -5.0831  -25.7219 H   0  0  0  0  0  0  0  0  0  0  0  0
  -19.5323   -8.8430  -37.7834 H   0  0  0  0  0  0  0  0  0  0  0  0
  -19.7927   -8.0456  -30.3499 H   0  0  0  0  0  0  0  0  0  0  0  0
  1  2  2  0  0  0  0
  1  3  1  0  0  0  0
  2  4  1  0  0  0  0
  3  5  2  0  0  0  0
  4  6  2  0  0  0  0
  5  6  1  0  0  0  0
  6 39  1  0  0  0  0
  7  9  2  0  0  0  0
  7 19  1  0  0  0  0
  7 20  1  0  0  0  0
  8 10  2  0  0  0  0
  8 37  1  0  0  0  0
  9 11  1  0  0  0  0
  9 38  1  0  0  0  0
 10 29  1  0  0  0  0
 10 30  1  0  0  0  0
 11 40  1  0  0  0  0
 11 41  2  0  0  0  0
 12 31  1  0  0  0  0
 12 42  2  0  0  0  0
 12 45  1  0  0  0  0
 13 15  1  0  0  0  0
 13 21  1  0  0  0  0
 14 16  1  0  0  0  0
 14 24  1  0  0  0  0
 15 27  1  0  0  0  0
 16 26  1  0  0  0  0
 17 19  1  0  0  0  0
 17 25  1  0  0  0  0
 18 20  1  0  0  0  0
 18 28  1  0  0  0  0
 19 28  1  0  0  0  0
 20 45  1  0  0  0  0
 21 23  1  0  0  0  0
 21 26  1  0  0  0  0
 22 25  1  0  0  0  0
 22 26  1  0  0  0  0
 22 27  1  0  0  0  0
 23 24  1  0  0  0  0
 23 32  1  0  0  0  0
 24 43  1  0  0  0  0
 25 44  1  0  0  0  0
 26 33  1  0  0  0  0
 27 28  1  0  0  0  0
 27 34  1  0  0  0  0
 28 35  1  0  0  0  0
 36 39  1  0  0  0  0
 37 38  1  0  0  0  0
 39 40  1  0  0  0  0
  1 46  1  0  0  0  0
  2 47  1  0  0  0  0
  3 48  1  0  0  0  0
  4 49  1  0  0  0  0
  5 50  1  0  0  0  0
  8 51  1  0  0  0  0
 13 52  1  0  0  0  0
 13 53  1  0  0  0  0
 14 54  1  0  0  0  0
 14 55  1  0  0  0  0
 15 56  1  0  0  0  0
 15 57  1  0  0  0  0
 16 58  1  0  0  0  0
 16 59  1  0  0  0  0
 17 60  1  0  0  0  0
 17 61  1  0  0  0  0
 18 62  1  0  0  0  0
 18 63  1  0  0  0  0
 19 64  1  0  0  0  0
 20 65  1  0  0  0  0
 21 66  1  0  0  0  0
 22 67  1  0  0  0  0
 23 68  1  0  0  0  0
 24 69  1  0  0  0  0
 25 70  1  0  0  0  0
 29 71  1  0  0  0  0
 29 72  1  0  0  0  0
 29 73  1  0  0  0  0
 30 74  1  0  0  0  0
 30 75  1  0  0  0  0
 30 76  1  0  0  0  0
 31 77  1  0  0  0  0
 31 78  1  0  0  0  0
 31 79  1  0  0  0  0
 32 80  1  0  0  0  0
 32 81  1  0  0  0  0
 32 82  1  0  0  0  0
 33 83  1  0  0  0  0
 33 84  1  0  0  0  0
 33 85  1  0  0  0  0
 34 86  1  0  0  0  0
 34 87  1  0  0  0  0
 34 88  1  0  0  0  0
 35 89  1  0  0  0  0
 35 90  1  0  0  0  0
 35 91  1  0  0  0  0
 36 92  1  0  0  0  0
 36 93  1  0  0  0  0
 36 94  1  0  0  0  0
 37 95  1  0  0  0  0
 37 96  1  0  0  0  0
 38 97  1  0  0  0  0
 38 98  1  0  0  0  0
 39 99  1  0  0  0  0
 40100  1  0  0  0  0
 43101  1  0  0  0  0
 44102  1  0  0  0  0
M  END
> <SMILES>
C[C@@H](NC(=O)/C(=C/1\[C@H](C[C@@]2(C)[C@H]1C[C@@H](O)[C@H]1[C@@]3(C)CC[C@@H](O)[C@@H](C)[C@@H]3CC[C@@]12C)OC(=O)C)CCC=C(C)C)c1ccccc1

> <FORMATTED_ID>
H3D-005460

> <MOLFORMULA>
C39H57NO5

> <Exact Mass>
619.42

> <XLogP>
7.54

> <TPSA_NOPS>
95.9

> <s_m_source_file>
ligprep_h3d.sdf

> <i_m_source_file_index>
2371

> <i_lp_mmshare_version>
55123

> <i_f3d_flags>
0

> <s_epik_input>
W2NIXTFbY0hdW2NIXVtjSF1bY0hdYzFbQ0BASF0oW0NIM10pW05IXUMoPU8pL0MoW0NIMl1bQ0gyXVtDSF09QyhbQ0gzXSlbQ0gzXSk9QyhcW0NASF0oW0NIMl0yKU9DKD1PKVtDSDNdKVtDQEBIXShbQ0BdMjNbQ0gzXSlbQ0gyXVtDQEBIXShbT0hdKVtDQEhdNFtDQF01KFtDSDNdKVtDQEhdKFtDQEhdKFtDSDNdKVtDQEhdKFtPSF0pW0NIMl1bQ0gyXTUpW0NIMl1bQ0gyXVtDQF0zNFtDSDNd

> <s_epik_cmdline>
J2VwaWtfcHl0aG9uJywgJy1waHQnLCAnMC41JywgJy1waCcsICc3LjUnLCAnLXRuJywgJzgnLCAnLW1hJywgJzUwMCcsICctaW1hZScsICc8aW5maWxlLm1hZT4nLCAnLW9tYWUnLCAnPG91dGZpbGUubWFlPic=

> <r_lp_tautomer_probability>
1

> <r_epik_Ionization_Penalty>
1.5927e-06

> <r_epik_Ionization_Penalty_Charging>
0

> <r_epik_Ionization_Penalty_Neutral>
1.5927e-06

> <r_epik_State_Penalty>
-0

> <r_epik_Charging_Adjusted_Penalty>
0

> <i_epik_Tot_Q>
0

> <i_epik_Tot_abs_Q>
0

> <s_epik_Chemistry_Notes>
This compound has an ester and may undergo hydrolysis at high or low pH.

> <s_lp_Force_Field>
S-OPLS

> <r_lp_Energy>
85.1247

> <b_lp_Chiralities_Consistent>
1

> <s_lp_Variant>
ligprep_h3d.sdf:2371-1

> <ROCS_ShapeQuery>
_7L13

> <ROCS_TanimotoCombo>
0.690 

> <ROCS_ShapeTanimoto>
0.632 

> <ROCS_ColorTanimoto>
0.058 

> <ROCS_RefTversky>
0.839 

> <ROCS_RefColorTversky>
0.136 

> <ROCS_RefTverskyCombo>
0.975 

> <ROCS_FitTversky>
0.719 

> <ROCS_FitColorTversky>
0.092 

> <ROCS_FitTverskyCombo>
0.811 

> <ROCS_ColorScore>
-1.261

> <ROCS_Overlap>
1406.181

> <ROCS_Rank>
9                   

$$$$
ligprep_h3d.sdf:5421_32
  -OEChem-08212117123D

 71 77  0     0  0  0  0  0  0999 V2000
  -19.9130   -6.3930  -33.4647 C   0  0  0  0  0  0  0  0  0  0  0  0
  -18.9117   -4.2598  -33.9973 C   0  0  0  0  0  0  0  0  0  0  0  0
  -19.8369   -6.7639  -34.8071 C   0  0  0  0  0  0  0  0  0  0  0  0
  -18.8355   -4.6307  -35.3398 C   0  0  0  0  0  0  0  0  0  0  0  0
  -26.6666   -4.8415  -22.8345 C   0  0  0  0  0  0  0  0  0  0  0  0
  -25.0546   -3.5193  -21.6277 C   0  0  0  0  0  0  0  0  0  0  0  0
  -23.2273   -4.2803  -28.6532 C   0  0  0  0  0  0  0  0  0  0  0  0
  -20.4368   -4.3166  -29.0343 C   0  0  0  0  0  0  0  0  0  0  0  0
  -14.7927   -5.8482  -25.1687 C   0  0  0  0  0  0  0  0  0  0  0  0
  -14.8786   -4.5969  -25.7319 C   0  0  0  0  0  0  0  0  0  0  0  0
  -27.5070   -4.7666  -21.7329 C   0  0  0  0  0  0  0  0  0  0  0  0
  -25.9359   -3.4777  -20.5567 C   0  0  0  0  0  0  0  0  0  0  0  0
  -22.3599   -4.4041  -27.5745 C   0  0  0  0  0  0  0  0  0  0  0  0
  -19.4504   -5.1409  -33.0597 C   0  0  0  0  0  0  0  0  0  0  0  0
  -25.4281   -4.2096  -22.7768 C   0  0  0  0  0  0  0  0  0  0  0  0
  -20.9713   -4.4248  -27.7555 C   0  0  0  0  0  0  0  0  0  0  0  0
  -22.6896   -4.1806  -29.9357 C   0  0  0  0  0  0  0  0  0  0  0  0
  -21.3027   -4.1975  -30.1250 C   0  0  0  0  0  0  0  0  0  0  0  0
  -19.2982   -5.8828  -35.7447 C   0  0  0  0  0  0  0  0  0  0  0  0
  -16.8683   -5.5674  -25.5942 C   0  0  0  0  0  0  0  0  0  0  0  0
  -18.2812   -5.6096  -25.7807 C   0  0  0  0  0  0  0  0  0  0  0  0
  -18.1864   -3.3762  -26.7513 C   0  0  0  0  0  0  0  0  0  0  0  0
  -16.8559   -3.3281  -26.5787 C   0  0  0  0  0  0  0  0  0  0  0  0
  -18.9395   -4.5651  -26.3365 C   0  0  0  0  0  0  0  0  0  0  0  0
  -23.7285   -5.5720  -25.7899 C   0  0  0  0  0  0  0  0  0  0  0  0
  -23.2204   -3.1210  -25.6025 C   0  0  0  0  0  0  0  0  0  0  0  0
  -24.1121   -5.5985  -24.3108 C   0  0  0  0  0  0  0  0  0  0  0  0
  -23.6538   -3.1470  -24.1343 C   0  0  0  0  0  0  0  0  0  0  0  0
  -21.2921   -4.8185  -25.5042 C   0  0  0  0  0  0  0  0  0  0  0  0
  -22.6941   -4.4791  -26.1042 C   0  0  0  0  0  0  0  0  0  0  0  0
  -23.8964   -2.7389  -31.3920 C   0  0  0  0  0  0  0  0  0  0  0  0
  -19.5313   -4.7415  -31.6156 C   0  0  0  0  0  0  0  0  0  0  0  0
  -16.0257   -6.4436  -25.0859 N   0  0  0  0  0  0  0  0  0  0  0  0
  -16.2097   -4.4155  -26.0055 N   0  0  0  0  0  0  0  0  0  0  0  0
  -27.1223   -4.0951  -20.6389 N   0  3  0  0  0  0  0  0  0  0  0  0
  -20.2804   -4.5556  -26.5350 N   0  0  0  0  0  0  0  0  0  0  0  0
  -24.5582   -4.2704  -23.8726 N   0  0  0  0  0  0  0  0  0  0  0  0
  -23.5292   -4.0605  -31.0029 O   0  0  0  0  0  0  0  0  0  0  0  0
  -20.7803   -4.0958  -31.3806 O   0  0  0  0  0  0  0  0  0  0  0  0
  -19.2226   -6.2400  -37.0335 F   0  0  0  0  0  0  0  0  0  0  0  0
  -20.3351   -7.0860  -32.7416 H   0  0  0  0  0  0  0  0  0  0  0  0
  -18.5485   -3.2823  -33.6910 H   0  0  0  0  0  0  0  0  0  0  0  0
  -20.1964   -7.7389  -35.1224 H   0  0  0  0  0  0  0  0  0  0  0  0
  -18.4166   -3.9448  -36.0700 H   0  0  0  0  0  0  0  0  0  0  0  0
  -26.9793   -5.3866  -23.7198 H   0  0  0  0  0  0  0  0  0  0  0  0
  -24.0931   -3.0199  -21.5590 H   0  0  0  0  0  0  0  0  0  0  0  0
  -24.3018   -4.2516  -28.5032 H   0  0  0  0  0  0  0  0  0  0  0  0
  -19.3642   -4.3282  -29.2012 H   0  0  0  0  0  0  0  0  0  0  0  0
  -13.9031   -6.3508  -24.8180 H   0  0  0  0  0  0  0  0  0  0  0  0
  -14.1339   -3.8448  -25.9536 H   0  0  0  0  0  0  0  0  0  0  0  0
  -28.4839   -5.2274  -21.6879 H   0  0  0  0  0  0  0  0  0  0  0  0
  -25.7306   -2.9657  -19.6265 H   0  0  0  0  0  0  0  0  0  0  0  0
  -18.8147   -6.5013  -25.4659 H   0  0  0  0  0  0  0  0  0  0  0  0
  -18.7165   -2.5409  -27.1963 H   0  0  0  0  0  0  0  0  0  0  0  0
  -16.2566   -2.4733  -26.8679 H   0  0  0  0  0  0  0  0  0  0  0  0
  -23.3504   -6.5594  -26.0852 H   0  0  0  0  0  0  0  0  0  0  0  0
  -24.6412   -5.4125  -26.3797 H   0  0  0  0  0  0  0  0  0  0  0  0
  -24.0830   -2.8100  -26.2082 H   0  0  0  0  0  0  0  0  0  0  0  0
  -22.4620   -2.3386  -25.7375 H   0  0  0  0  0  0  0  0  0  0  0  0
  -24.9167   -6.3320  -24.1727 H   0  0  0  0  0  0  0  0  0  0  0  0
  -23.2613   -5.9268  -23.7007 H   0  0  0  0  0  0  0  0  0  0  0  0
  -22.7768   -3.2153  -23.4793 H   0  0  0  0  0  0  0  0  0  0  0  0
  -24.1547   -2.1980  -23.9039 H   0  0  0  0  0  0  0  0  0  0  0  0
  -21.0764   -4.2394  -24.5994 H   0  0  0  0  0  0  0  0  0  0  0  0
  -21.2321   -5.8800  -25.2292 H   0  0  0  0  0  0  0  0  0  0  0  0
  -24.5672   -2.7850  -32.2533 H   0  0  0  0  0  0  0  0  0  0  0  0
  -22.9984   -2.1701  -31.6461 H   0  0  0  0  0  0  0  0  0  0  0  0
  -24.4096   -2.2527  -30.5590 H   0  0  0  0  0  0  0  0  0  0  0  0
  -19.4533   -5.6171  -30.9621 H   0  0  0  0  0  0  0  0  0  0  0  0
  -18.7178   -4.0552  -31.3570 H   0  0  0  0  0  0  0  0  0  0  0  0
  -27.7548   -4.0528  -19.8402 H   0  0  0  0  0  0  0  0  0  0  0  0
  1  3  1  0  0  0  0
  1 14  2  0  0  0  0
  2  4  2  0  0  0  0
  2 14  1  0  0  0  0
  3 19  2  0  0  0  0
  4 19  1  0  0  0  0
  5 11  1  0  0  0  0
  5 15  2  0  0  0  0
  6 12  2  0  0  0  0
  6 15  1  0  0  0  0
  7 13  1  0  0  0  0
  7 17  2  0  0  0  0
  8 16  1  0  0  0  0
  8 18  2  0  0  0  0
  9 10  2  0  0  0  0
  9 33  1  0  0  0  0
 10 34  1  0  0  0  0
 11 35  2  0  0  0  0
 12 35  1  0  0  0  0
 13 16  2  0  0  0  0
 13 30  1  0  0  0  0
 14 32  1  0  0  0  0
 15 37  1  0  0  0  0
 16 36  1  0  0  0  0
 17 18  1  0  0  0  0
 17 38  1  0  0  0  0
 18 39  1  0  0  0  0
 19 40  1  0  0  0  0
 20 21  1  0  0  0  0
 20 33  2  0  0  0  0
 20 34  1  0  0  0  0
 21 24  2  0  0  0  0
 22 23  2  0  0  0  0
 22 24  1  0  0  0  0
 23 34  1  0  0  0  0
 24 36  1  0  0  0  0
 25 27  1  0  0  0  0
 25 30  1  0  0  0  0
 26 28  1  0  0  0  0
 26 30  1  0  0  0  0
 27 37  1  0  0  0  0
 28 37  1  0  0  0  0
 29 30  1  0  0  0  0
 29 36  1  0  0  0  0
 31 38  1  0  0  0  0
 32 39  1  0  0  0  0
  1 41  1  0  0  0  0
  2 42  1  0  0  0  0
  3 43  1  0  0  0  0
  4 44  1  0  0  0  0
  5 45  1  0  0  0  0
  6 46  1  0  0  0  0
  7 47  1  0  0  0  0
  8 48  1  0  0  0  0
  9 49  1  0  0  0  0
 10 50  1  0  0  0  0
 11 51  1  0  0  0  0
 12 52  1  0  0  0  0
 21 53  1  0  0  0  0
 22 54  1  0  0  0  0
 23 55  1  0  0  0  0
 25 56  1  0  0  0  0
 25 57  1  0  0  0  0
 26 58  1  0  0  0  0
 26 59  1  0  0  0  0
 27 60  1  0  0  0  0
 27 61  1  0  0  0  0
 28 62  1  0  0  0  0
 28 63  1  0  0  0  0
 29 64  1  0  0  0  0
 29 65  1  0  0  0  0
 31 66  1  0  0  0  0
 31 67  1  0  0  0  0
 31 68  1  0  0  0  0
 32 69  1  0  0  0  0
 32 70  1  0  0  0  0
 35 71  1  0  0  0  0
M  CHG  1  35   1
M  END
> <SMILES>
COc1cc2c(cc1OCc1ccc(cc1)F)N(CC12CCN(CC1)c1ccncc1)c1ccn2ccnc2c1

> <FORMATTED_ID>
H3D-015665

> <MOLFORMULA>
C32H30FN5O2

> <Exact Mass>
535.24

> <XLogP>
6.48

> <TPSA_NOPS>
55.1

> <s_m_source_file>
ligprep_h3d.sdf

> <i_m_source_file_index>
5421

> <i_lp_mmshare_version>
55123

> <i_f3d_flags>
0

> <s_epik_input>
W2NIXTFbY0hdYyhGKVtjSF1bY0hdYzFbQ0gyXU9jKGMoW2NIXTIpT1tDSDNdKVtjSF1jKE4oW0NIMl0zKWMoW2NIXVtjSF00KVtjSF1jKG40NSluW2NIXVtjSF01KWMyQzM2W0NIMl1bQ0gyXU4oW0NIMl1bQ0gyXTYpYzdbY0hdW2NIXW5bY0hdW2NIXTc=

> <s_epik_cmdline>
J2VwaWtfcHl0aG9uJywgJy1waHQnLCAnMC41JywgJy1waCcsICc3LjUnLCAnLXRuJywgJzgnLCAnLW1hJywgJzUwMCcsICctaW1hZScsICc8aW5maWxlLm1hZT4nLCAnLW9tYWUnLCAnPG91dGZpbGUubWFlPic=

> <r_lp_tautomer_probability>
1

> <r_epik_Ionization_Penalty>
0.541984

> <r_epik_Ionization_Penalty_Charging>
0.541984

> <r_epik_Ionization_Penalty_Neutral>
3.00463e-08

> <r_epik_State_Penalty>
0.5452

> <r_epik_Charging_Adjusted_Penalty>
1.08718

> <i_epik_Tot_Q>
1

> <i_epik_Tot_abs_Q>
1

> <s_lp_Force_Field>
S-OPLS

> <r_lp_Energy>
84.5909

> <b_lp_Chiralities_Consistent>
1

> <s_lp_Variant>
ligprep_h3d.sdf:5421-2

> <ROCS_ShapeQuery>
_7L13

> <ROCS_TanimotoCombo>
0.709 

> <ROCS_ShapeTanimoto>
0.652 

> <ROCS_ColorTanimoto>
0.056 

> <ROCS_RefTversky>
0.838 

> <ROCS_RefColorTversky>
0.122 

> <ROCS_RefTverskyCombo>
0.960 

> <ROCS_FitTversky>
0.747 

> <ROCS_FitColorTversky>
0.094 

> <ROCS_FitTverskyCombo>
0.841 

> <ROCS_ColorScore>
-1.118

> <ROCS_Overlap>
1400.538

> <ROCS_Rank>
10                  

$$$$
ligprep_h3d.sdf:5438_355
  -OEChem-08212117123D

 66 71  0     0  0  0  0  0  0999 V2000
  -21.1476   -4.4159  -34.3365 C   0  0  0  0  0  0  0  0  0  0  0  0
  -21.0445   -6.2245  -32.7380 C   0  0  0  0  0  0  0  0  0  0  0  0
  -20.2086   -5.0684  -35.1353 C   0  0  0  0  0  0  0  0  0  0  0  0
  -20.1055   -6.8770  -33.5368 C   0  0  0  0  0  0  0  0  0  0  0  0
  -20.9520   -4.0125  -29.2490 C   0  0  0  0  0  0  0  0  0  0  0  0
  -23.5307   -3.9279  -28.1047 C   0  0  0  0  0  0  0  0  0  0  0  0
  -26.5405   -4.6281  -22.4035 C   0  0  0  0  0  0  0  0  0  0  0  0
  -27.3126   -5.6062  -22.9736 C   0  0  0  0  0  0  0  0  0  0  0  0
  -21.1359   -4.2779  -27.8976 C   0  0  0  0  0  0  0  0  0  0  0  0
  -21.5655   -4.9939  -33.1378 C   0  0  0  0  0  0  0  0  0  0  0  0
  -22.4149   -4.2339  -27.3392 C   0  0  0  0  0  0  0  0  0  0  0  0
  -22.0661   -3.7030  -30.0316 C   0  0  0  0  0  0  0  0  0  0  0  0
  -23.3466   -3.6611  -29.4628 C   0  0  0  0  0  0  0  0  0  0  0  0
  -19.6876   -6.2990  -34.7355 C   0  0  0  0  0  0  0  0  0  0  0  0
  -25.5135   -5.3505  -24.2316 C   0  0  0  0  0  0  0  0  0  0  0  0
  -24.4453   -5.4213  -25.2646 C   0  0  0  0  0  0  0  0  0  0  0  0
  -23.3834   -3.6689  -23.9613 C   0  0  0  0  0  0  0  0  0  0  0  0
  -24.3644   -3.6255  -23.0399 C   0  0  0  0  0  0  0  0  0  0  0  0
  -23.3968   -4.5823  -25.1176 C   0  0  0  0  0  0  0  0  0  0  0  0
  -19.0597   -3.4951  -26.6976 C   0  0  0  0  0  0  0  0  0  0  0  0
  -19.3681   -5.9469  -27.2238 C   0  0  0  0  0  0  0  0  0  0  0  0
  -20.9651   -4.7954  -25.5874 C   0  0  0  0  0  0  0  0  0  0  0  0
  -17.9369   -3.8531  -25.7306 C   0  0  0  0  0  0  0  0  0  0  0  0
  -18.2433   -6.2874  -26.2529 C   0  0  0  0  0  0  0  0  0  0  0  0
  -20.0860   -4.6322  -26.8634 C   0  0  0  0  0  0  0  0  0  0  0  0
  -16.0784   -5.4649  -25.3322 C   0  0  0  0  0  0  0  0  0  0  0  0
  -24.7863   -1.9822  -30.3371 C   0  0  0  0  0  0  0  0  0  0  0  0
  -22.5761   -4.2929  -32.2783 C   0  0  0  0  0  0  0  0  0  0  0  0
  -25.4262   -4.4860  -23.2034 N   0  0  0  0  0  0  0  0  0  0  0  0
  -26.6531   -6.0348  -24.1020 N   0  3  0  0  0  0  0  0  0  0  0  0
  -22.3556   -4.5329  -25.9741 N   0  0  0  0  0  0  0  0  0  0  0  0
  -17.2752   -5.1323  -26.1805 N   0  3  0  0  0  0  0  0  0  0  0  0
  -24.4298   -3.3587  -30.2342 O   0  0  0  0  0  0  0  0  0  0  0  0
  -21.8952   -3.4423  -31.3588 O   0  0  0  0  0  0  0  0  0  0  0  0
  -18.7878   -6.9270  -35.5039 F   0  0  0  0  0  0  0  0  0  0  0  0
  -21.5473   -3.4571  -34.6560 H   0  0  0  0  0  0  0  0  0  0  0  0
  -21.3644   -6.6827  -31.8057 H   0  0  0  0  0  0  0  0  0  0  0  0
  -19.8837   -4.6189  -36.0688 H   0  0  0  0  0  0  0  0  0  0  0  0
  -19.6993   -7.8349  -33.2257 H   0  0  0  0  0  0  0  0  0  0  0  0
  -19.9612   -4.0445  -29.6917 H   0  0  0  0  0  0  0  0  0  0  0  0
  -24.5270   -3.8928  -27.6774 H   0  0  0  0  0  0  0  0  0  0  0  0
  -26.6316   -4.0086  -21.5314 H   0  0  0  0  0  0  0  0  0  0  0  0
  -28.2503   -6.0712  -22.7422 H   0  0  0  0  0  0  0  0  0  0  0  0
  -24.5363   -6.1244  -26.0833 H   0  0  0  0  0  0  0  0  0  0  0  0
  -22.5324   -3.0013  -23.8588 H   0  0  0  0  0  0  0  0  0  0  0  0
  -24.3641   -2.9586  -22.1876 H   0  0  0  0  0  0  0  0  0  0  0  0
  -19.5541   -2.5775  -26.3525 H   0  0  0  0  0  0  0  0  0  0  0  0
  -18.6134   -3.2457  -27.6698 H   0  0  0  0  0  0  0  0  0  0  0  0
  -18.9446   -5.8800  -28.2352 H   0  0  0  0  0  0  0  0  0  0  0  0
  -20.0827   -6.7798  -27.2545 H   0  0  0  0  0  0  0  0  0  0  0  0
  -20.8905   -5.8063  -25.1685 H   0  0  0  0  0  0  0  0  0  0  0  0
  -20.6702   -4.0938  -24.7976 H   0  0  0  0  0  0  0  0  0  0  0  0
  -17.1705   -3.0709  -25.7302 H   0  0  0  0  0  0  0  0  0  0  0  0
  -18.2975   -4.0059  -24.7081 H   0  0  0  0  0  0  0  0  0  0  0  0
  -18.6092   -6.4800  -25.2390 H   0  0  0  0  0  0  0  0  0  0  0  0
  -17.6852   -7.1602  -26.6074 H   0  0  0  0  0  0  0  0  0  0  0  0
  -16.4293   -5.6393  -24.3134 H   0  0  0  0  0  0  0  0  0  0  0  0
  -15.6140   -6.3618  -25.7465 H   0  0  0  0  0  0  0  0  0  0  0  0
  -15.3944   -4.6149  -25.3715 H   0  0  0  0  0  0  0  0  0  0  0  0
  -25.6645   -1.8796  -30.9793 H   0  0  0  0  0  0  0  0  0  0  0  0
  -23.9485   -1.4182  -30.7546 H   0  0  0  0  0  0  0  0  0  0  0  0
  -25.0198   -1.6000  -29.3406 H   0  0  0  0  0  0  0  0  0  0  0  0
  -23.2565   -3.6882  -32.8876 H   0  0  0  0  0  0  0  0  0  0  0  0
  -23.1786   -5.0170  -31.7193 H   0  0  0  0  0  0  0  0  0  0  0  0
  -26.9813   -6.7575  -24.7368 H   0  0  0  0  0  0  0  0  0  0  0  0
  -16.9193   -4.9727  -27.1331 H   0  0  0  0  0  0  0  0  0  0  0  0
  1  3  1  0  0  0  0
  1 10  2  0  0  0  0
  2  4  2  0  0  0  0
  2 10  1  0  0  0  0
  3 14  2  0  0  0  0
  4 14  1  0  0  0  0
  5  9  1  0  0  0  0
  5 12  2  0  0  0  0
  6 11  1  0  0  0  0
  6 13  2  0  0  0  0
  7  8  2  0  0  0  0
  7 29  1  0  0  0  0
  8 30  1  0  0  0  0
  9 11  2  0  0  0  0
  9 25  1  0  0  0  0
 10 28  1  0  0  0  0
 11 31  1  0  0  0  0
 12 13  1  0  0  0  0
 12 34  1  0  0  0  0
 13 33  1  0  0  0  0
 14 35  1  0  0  0  0
 15 16  1  0  0  0  0
 15 29  1  0  0  0  0
 15 30  2  0  0  0  0
 16 19  2  0  0  0  0
 17 18  2  0  0  0  0
 17 19  1  0  0  0  0
 18 29  1  0  0  0  0
 19 31  1  0  0  0  0
 20 23  1  0  0  0  0
 20 25  1  0  0  0  0
 21 24  1  0  0  0  0
 21 25  1  0  0  0  0
 22 25  1  0  0  0  0
 22 31  1  0  0  0  0
 23 32  1  0  0  0  0
 24 32  1  0  0  0  0
 26 32  1  0  0  0  0
 27 33  1  0  0  0  0
 28 34  1  0  0  0  0
  1 36  1  0  0  0  0
  2 37  1  0  0  0  0
  3 38  1  0  0  0  0
  4 39  1  0  0  0  0
  5 40  1  0  0  0  0
  6 41  1  0  0  0  0
  7 42  1  0  0  0  0
  8 43  1  0  0  0  0
 16 44  1  0  0  0  0
 17 45  1  0  0  0  0
 18 46  1  0  0  0  0
 20 47  1  0  0  0  0
 20 48  1  0  0  0  0
 21 49  1  0  0  0  0
 21 50  1  0  0  0  0
 22 51  1  0  0  0  0
 22 52  1  0  0  0  0
 23 53  1  0  0  0  0
 23 54  1  0  0  0  0
 24 55  1  0  0  0  0
 24 56  1  0  0  0  0
 26 57  1  0  0  0  0
 26 58  1  0  0  0  0
 26 59  1  0  0  0  0
 27 60  1  0  0  0  0
 27 61  1  0  0  0  0
 27 62  1  0  0  0  0
 28 63  1  0  0  0  0
 28 64  1  0  0  0  0
 30 65  1  0  0  0  0
 32 66  1  0  0  0  0
M  CHG  2  30   1  32   1
M  END
> <SMILES>
COc1cc2c(cc1OCc1ccc(cc1)F)C1(CCN(C)CC1)CN2c1ccn2ccnc2c1

> <FORMATTED_ID>
H3D-016044

> <MOLFORMULA>
C28H29FN4O2

> <Exact Mass>
472.23

> <XLogP>
6.17

> <TPSA_NOPS>
42.2

> <s_m_source_file>
ligprep_h3d.sdf

> <i_m_source_file_index>
5438

> <i_lp_mmshare_version>
55123

> <i_f3d_flags>
0

> <s_epik_input>
W0NIMl0xW0NIMl1OKFtDSDNdKVtDSDJdW0NIMl1DMTJjM2MoTihbQ0gyXTIpYyhbY0hdW2NIXTQpW2NIXWMobjQ1KW5bY0hdW2NIXTUpW2NIXWMoT1tDSDNdKWMoW2NIXTMpT1tDSDJdYzZbY0hdW2NIXWMoRilbY0hdW2NIXTY=

> <s_epik_cmdline>
J2VwaWtfcHl0aG9uJywgJy1waHQnLCAnMC41JywgJy1waCcsICc3LjUnLCAnLXRuJywgJzgnLCAnLW1hJywgJzUwMCcsICctaW1hZScsICc8aW5maWxlLm1hZT4nLCAnLW9tYWUnLCAnPG91dGZpbGUubWFlPic=

> <r_lp_tautomer_probability>
1

> <r_epik_Ionization_Penalty>
0.405137

> <r_epik_Ionization_Penalty_Charging>
0.00813204

> <r_epik_Ionization_Penalty_Neutral>
0.397005

> <r_epik_State_Penalty>
0.396099

> <r_epik_Charging_Adjusted_Penalty>
0.404231

> <i_epik_Tot_Q>
2

> <i_epik_Tot_abs_Q>
2

> <s_lp_Force_Field>
S-OPLS

> <r_lp_Energy>
75.1536

> <b_lp_Chiralities_Consistent>
1

> <s_lp_Variant>
ligprep_h3d.sdf:5438-1

> <ROCS_ShapeQuery>
_7L13

> <ROCS_TanimotoCombo>
0.833 

> <ROCS_ShapeTanimoto>
0.730 

> <ROCS_ColorTanimoto>
0.103 

> <ROCS_RefTversky>
0.838 

> <ROCS_RefColorTversky>
0.216 

> <ROCS_RefTverskyCombo>
1.053 

> <ROCS_FitTversky>
0.850 

> <ROCS_FitColorTversky>
0.166 

> <ROCS_FitTverskyCombo>
1.016 

> <ROCS_ColorScore>
-1.972

> <ROCS_Overlap>
1389.839

> <ROCS_Rank>
11                  

$$$$
ligprep_h3d.sdf:5139_957
  -OEChem-08212117123D

 69 74  0     0  0  0  0  0  0999 V2000
  -21.6444   -4.6258  -33.5726 C   0  0  0  0  0  0  0  0  0  0  0  0
  -20.8654   -6.5209  -32.2925 C   0  0  0  0  0  0  0  0  0  0  0  0
  -20.9111   -5.0680  -34.6736 C   0  0  0  0  0  0  0  0  0  0  0  0
  -20.1320   -6.9632  -33.3936 C   0  0  0  0  0  0  0  0  0  0  0  0
  -18.5059   -4.5223  -29.0452 C   0  0  0  0  0  0  0  0  0  0  0  0
  -21.2018   -4.1118  -28.3168 C   0  0  0  0  0  0  0  0  0  0  0  0
  -25.0265   -3.8548  -23.0863 C   0  0  0  0  0  0  0  0  0  0  0  0
  -25.7938   -4.8432  -23.6450 C   0  0  0  0  0  0  0  0  0  0  0  0
  -18.8989   -4.5961  -27.7145 C   0  0  0  0  0  0  0  0  0  0  0  0
  -21.6215   -5.3523  -32.3820 C   0  0  0  0  0  0  0  0  0  0  0  0
  -20.1549   -6.2367  -34.5841 C   0  0  0  0  0  0  0  0  0  0  0  0
  -20.2345   -4.3918  -27.3625 C   0  0  0  0  0  0  0  0  0  0  0  0
  -19.4689   -4.2412  -30.0165 C   0  0  0  0  0  0  0  0  0  0  0  0
  -20.8076   -4.0375  -29.6542 C   0  0  0  0  0  0  0  0  0  0  0  0
  -23.8215   -4.8780  -24.6418 C   0  0  0  0  0  0  0  0  0  0  0  0
  -22.6299   -5.1562  -25.4879 C   0  0  0  0  0  0  0  0  0  0  0  0
  -21.6116   -3.3264  -24.2584 C   0  0  0  0  0  0  0  0  0  0  0  0
  -22.7039   -3.0959  -23.5054 C   0  0  0  0  0  0  0  0  0  0  0  0
  -21.5432   -4.3795  -25.2868 C   0  0  0  0  0  0  0  0  0  0  0  0
  -16.9501   -3.8087  -26.3197 C   0  0  0  0  0  0  0  0  0  0  0  0
  -17.3944   -6.2810  -26.5910 C   0  0  0  0  0  0  0  0  0  0  0  0
  -19.0976   -4.8189  -25.3598 C   0  0  0  0  0  0  0  0  0  0  0  0
  -16.0086   -4.1143  -25.1603 C   0  0  0  0  0  0  0  0  0  0  0  0
  -16.4499   -6.5688  -25.4296 C   0  0  0  0  0  0  0  0  0  0  0  0
  -18.0383   -4.8842  -26.5006 C   0  0  0  0  0  0  0  0  0  0  0  0
  -14.3712   -5.7847  -24.3004 C   0  0  0  0  0  0  0  0  0  0  0  0
  -18.6882   -2.8901  -31.8112 C   0  0  0  0  0  0  0  0  0  0  0  0
  -22.4105   -4.8775  -31.1972 C   0  0  0  0  0  0  0  0  0  0  0  0
  -19.3723   -6.7097  -35.7623 C   0  0  0  0  0  0  0  0  0  0  0  0
  -23.8034   -3.8952  -23.7222 N   0  0  0  0  0  0  0  0  0  0  0  0
  -25.0232   -5.4595  -24.6034 N   0  3  0  0  0  0  0  0  0  0  0  0
  -20.3924   -4.5139  -25.9781 N   0  0  0  0  0  0  0  0  0  0  0  0
  -15.4045   -5.4837  -25.3513 N   0  3  0  0  0  0  0  0  0  0  0  0
  -19.0924   -4.1679  -31.3248 O   0  0  0  0  0  0  0  0  0  0  0  0
  -21.7422   -3.7641  -30.6091 O   0  0  0  0  0  0  0  0  0  0  0  0
  -19.4895   -5.9019  -36.8576 F   0  0  0  0  0  0  0  0  0  0  0  0
  -18.0297   -6.7980  -35.5272 F   0  0  0  0  0  0  0  0  0  0  0  0
  -19.7530   -7.9517  -36.1812 F   0  0  0  0  0  0  0  0  0  0  0  0
  -22.2306   -3.7139  -33.6513 H   0  0  0  0  0  0  0  0  0  0  0  0
  -20.8431   -7.0938  -31.3691 H   0  0  0  0  0  0  0  0  0  0  0  0
  -20.9363   -4.4964  -35.5975 H   0  0  0  0  0  0  0  0  0  0  0  0
  -19.5454   -7.8748  -33.3155 H   0  0  0  0  0  0  0  0  0  0  0  0
  -17.4697   -4.6798  -29.3281 H   0  0  0  0  0  0  0  0  0  0  0  0
  -22.2410   -3.9529  -28.0502 H   0  0  0  0  0  0  0  0  0  0  0  0
  -25.1840   -3.1222  -22.3175 H   0  0  0  0  0  0  0  0  0  0  0  0
  -26.7915   -5.2083  -23.5025 H   0  0  0  0  0  0  0  0  0  0  0  0
  -22.6668   -5.9519  -26.2216 H   0  0  0  0  0  0  0  0  0  0  0  0
  -20.7284   -2.7113  -24.1100 H   0  0  0  0  0  0  0  0  0  0  0  0
  -22.7644   -2.3253  -22.7480 H   0  0  0  0  0  0  0  0  0  0  0  0
  -17.4060   -2.8221  -26.1638 H   0  0  0  0  0  0  0  0  0  0  0  0
  -16.3526   -3.7193  -27.2371 H   0  0  0  0  0  0  0  0  0  0  0  0
  -16.8298   -6.3757  -27.5285 H   0  0  0  0  0  0  0  0  0  0  0  0
  -18.1675   -7.0595  -26.6288 H   0  0  0  0  0  0  0  0  0  0  0  0
  -19.1705   -5.7694  -24.8173 H   0  0  0  0  0  0  0  0  0  0  0  0
  -18.8557   -4.0425  -24.6238 H   0  0  0  0  0  0  0  0  0  0  0  0
  -15.1846   -3.3933  -25.1385 H   0  0  0  0  0  0  0  0  0  0  0  0
  -16.5201   -4.1074  -24.1923 H   0  0  0  0  0  0  0  0  0  0  0  0
  -16.9690   -6.6021  -24.4660 H   0  0  0  0  0  0  0  0  0  0  0  0
  -15.9260   -7.5168  -25.5906 H   0  0  0  0  0  0  0  0  0  0  0  0
  -14.8746   -5.8003  -23.3320 H   0  0  0  0  0  0  0  0  0  0  0  0
  -13.9335   -6.7578  -24.5312 H   0  0  0  0  0  0  0  0  0  0  0  0
  -13.6170   -4.9963  -24.3379 H   0  0  0  0  0  0  0  0  0  0  0  0
  -18.4143   -2.9709  -32.8660 H   0  0  0  0  0  0  0  0  0  0  0  0
  -17.8360   -2.5306  -31.2289 H   0  0  0  0  0  0  0  0  0  0  0  0
  -19.5204   -2.1901  -31.7058 H   0  0  0  0  0  0  0  0  0  0  0  0
  -23.4192   -4.5719  -31.4952 H   0  0  0  0  0  0  0  0  0  0  0  0
  -22.5067   -5.6737  -30.4513 H   0  0  0  0  0  0  0  0  0  0  0  0
  -25.3214   -6.2343  -25.1896 H   0  0  0  0  0  0  0  0  0  0  0  0
  -14.9067   -5.4744  -26.2522 H   0  0  0  0  0  0  0  0  0  0  0  0
  1  3  1  0  0  0  0
  1 10  2  0  0  0  0
  2  4  2  0  0  0  0
  2 10  1  0  0  0  0
  3 11  2  0  0  0  0
  4 11  1  0  0  0  0
  5  9  1  0  0  0  0
  5 13  2  0  0  0  0
  6 12  1  0  0  0  0
  6 14  2  0  0  0  0
  7  8  2  0  0  0  0
  7 30  1  0  0  0  0
  8 31  1  0  0  0  0
  9 12  2  0  0  0  0
  9 25  1  0  0  0  0
 10 28  1  0  0  0  0
 11 29  1  0  0  0  0
 12 32  1  0  0  0  0
 13 14  1  0  0  0  0
 13 34  1  0  0  0  0
 14 35  1  0  0  0  0
 15 16  1  0  0  0  0
 15 30  1  0  0  0  0
 15 31  2  0  0  0  0
 16 19  2  0  0  0  0
 17 18  2  0  0  0  0
 17 19  1  0  0  0  0
 18 30  1  0  0  0  0
 19 32  1  0  0  0  0
 20 23  1  0  0  0  0
 20 25  1  0  0  0  0
 21 24  1  0  0  0  0
 21 25  1  0  0  0  0
 22 25  1  0  0  0  0
 22 32  1  0  0  0  0
 23 33  1  0  0  0  0
 24 33  1  0  0  0  0
 26 33  1  0  0  0  0
 27 34  1  0  0  0  0
 28 35  1  0  0  0  0
 29 36  1  0  0  0  0
 29 37  1  0  0  0  0
 29 38  1  0  0  0  0
  1 39  1  0  0  0  0
  2 40  1  0  0  0  0
  3 41  1  0  0  0  0
  4 42  1  0  0  0  0
  5 43  1  0  0  0  0
  6 44  1  0  0  0  0
  7 45  1  0  0  0  0
  8 46  1  0  0  0  0
 16 47  1  0  0  0  0
 17 48  1  0  0  0  0
 18 49  1  0  0  0  0
 20 50  1  0  0  0  0
 20 51  1  0  0  0  0
 21 52  1  0  0  0  0
 21 53  1  0  0  0  0
 22 54  1  0  0  0  0
 22 55  1  0  0  0  0
 23 56  1  0  0  0  0
 23 57  1  0  0  0  0
 24 58  1  0  0  0  0
 24 59  1  0  0  0  0
 26 60  1  0  0  0  0
 26 61  1  0  0  0  0
 26 62  1  0  0  0  0
 27 63  1  0  0  0  0
 27 64  1  0  0  0  0
 27 65  1  0  0  0  0
 28 66  1  0  0  0  0
 28 67  1  0  0  0  0
 31 68  1  0  0  0  0
 33 69  1  0  0  0  0
M  CHG  2  31   1  33   1
M  END
> <SMILES>
COc1cc2c(cc1OCc1ccc(cc1)C(F)(F)F)N(CC12CCN(C)CC1)c1ccn2ccnc2c1

> <FORMATTED_ID>
H3D-013873

> <MOLFORMULA>
C29H29F3N4O2

> <Exact Mass>
522.22

> <XLogP>
7.06

> <TPSA_NOPS>
42.2

> <s_m_source_file>
ligprep_h3d.sdf

> <i_m_source_file_index>
5139

> <i_lp_mmshare_version>
55123

> <i_f3d_flags>
0

> <s_epik_input>
W2NIXTFbY0hdYyhDKEYpKEYpRilbY0hdW2NIXWMxW0NIMl1PYyhjKFtjSF0yKU9bQ0gzXSlbY0hdYyhjMkMzNFtDSDJdW0NIMl1OKFtDSDNdKVtDSDJdW0NIMl00KU4oW0NIMl0zKWMoW2NIXVtjSF01KVtjSF1jKG41NiluW2NIXVtjSF02

> <s_epik_cmdline>
J2VwaWtfcHl0aG9uJywgJy1waHQnLCAnMC41JywgJy1waCcsICc3LjUnLCAnLXRuJywgJzgnLCAnLW1hJywgJzUwMCcsICctaW1hZScsICc8aW5maWxlLm1hZT4nLCAnLW9tYWUnLCAnPG91dGZpbGUubWFlPic=

> <r_lp_tautomer_probability>
1

> <r_epik_Ionization_Penalty>
0.405137

> <r_epik_Ionization_Penalty_Charging>
0.00813204

> <r_epik_Ionization_Penalty_Neutral>
0.397005

> <r_epik_State_Penalty>
0.396099

> <r_epik_Charging_Adjusted_Penalty>
0.404231

> <i_epik_Tot_Q>
2

> <i_epik_Tot_abs_Q>
2

> <s_lp_Force_Field>
S-OPLS

> <r_lp_Energy>
78.6725

> <b_lp_Chiralities_Consistent>
1

> <s_lp_Variant>
ligprep_h3d.sdf:5139-1

> <ROCS_ShapeQuery>
_7L13

> <ROCS_TanimotoCombo>
0.735 

> <ROCS_ShapeTanimoto>
0.683 

> <ROCS_ColorTanimoto>
0.051 

> <ROCS_RefTversky>
0.837 

> <ROCS_RefColorTversky>
0.112 

> <ROCS_RefTverskyCombo>
0.949 

> <ROCS_FitTversky>
0.788 

> <ROCS_FitColorTversky>
0.086 

> <ROCS_FitTverskyCombo>
0.874 

> <ROCS_ColorScore>
-1.022

> <ROCS_Overlap>
1395.502

> <ROCS_Rank>
12                  

$$$$
ligprep_h3d.sdf:2723_1987
  -OEChem-08212117123D

115119  0     1  0  0  0  0  0999 V2000
  -24.8507   -3.7278  -23.0303 C   0  0  0  0  0  0  0  0  0  0  0  0
  -22.8981   -3.4660  -24.4287 C   0  0  0  0  0  0  0  0  0  0  0  0
  -25.3474   -4.6943  -23.9047 C   0  0  0  0  0  0  0  0  0  0  0  0
  -23.3948   -4.4326  -25.3032 C   0  0  0  0  0  0  0  0  0  0  0  0
  -24.6195   -5.0467  -25.0412 C   0  0  0  0  0  0  0  0  0  0  0  0
  -23.6260   -3.1136  -23.2923 C   0  0  0  0  0  0  0  0  0  0  0  0
  -21.7441   -4.6102  -29.5146 C   0  0  0  0  0  0  0  0  0  0  0  0
  -17.9202   -5.8288  -26.4907 C   0  0  0  0  0  0  0  0  0  0  0  0
  -21.1385   -4.6742  -28.3231 C   0  0  0  0  0  0  0  0  0  0  0  0
  -16.9187   -5.4108  -25.6934 C   0  0  0  0  0  0  0  0  0  0  0  0
  -21.7573   -3.9734  -27.1524 C   0  0  0  0  0  0  0  0  0  0  0  0
  -23.8138   -1.9914  -28.5452 C   0  0  0  0  0  0  0  0  0  0  0  0
  -21.1630   -3.9325  -35.7523 C   0  0  0  0  0  0  0  0  0  0  0  0
  -19.3891   -7.9005  -36.6410 C   0  0  0  0  0  0  0  0  0  0  0  0
  -21.9645   -3.8292  -34.4430 C   0  0  0  0  0  0  0  0  0  0  0  0
  -19.7362   -7.4733  -35.2039 C   0  0  0  0  0  0  0  0  0  0  0  0
  -19.8254   -5.6888  -30.9928 C   0  0  0  0  0  0  0  0  0  0  0  0
  -23.1424   -3.8874  -31.3496 C   0  0  0  0  0  0  0  0  0  0  0  0
  -21.2755   -5.2525  -30.7975 C   0  0  2  0  0  0  0  0  0  0  0  0
  -22.9975   -3.8114  -29.8135 C   0  0  2  0  0  0  0  0  0  0  0  0
  -20.8022   -5.3802  -36.0706 C   0  0  1  0  0  0  0  0  0  0  0  0
  -20.1594   -5.4370  -33.5411 C   0  0  1  0  0  0  0  0  0  0  0  0
  -20.3577   -5.6882  -37.5264 C   0  0  1  0  0  0  0  0  0  0  0  0
  -20.2524   -7.2248  -37.7092 C   0  0  2  0  0  0  0  0  0  0  0  0
  -19.6501   -6.3420  -32.3789 C   0  0  2  0  0  0  0  0  0  0  0  0
  -19.7867   -5.9354  -35.0131 C   0  0  1  0  0  0  0  0  0  0  0  0
  -21.6330   -4.8897  -33.3343 C   0  0  1  0  0  0  0  0  0  0  0  0
  -21.7195   -4.2240  -31.8756 C   0  0  1  0  0  0  0  0  0  0  0  0
  -15.5714   -6.0634  -25.5671 C   0  0  0  0  0  0  0  0  0  0  0  0
  -17.0952   -4.1888  -24.8309 C   0  0  0  0  0  0  0  0  0  0  0  0
  -23.5464   -0.5546  -28.2133 C   0  0  0  0  0  0  0  0  0  0  0  0
  -21.3024   -5.0877  -38.5757 C   0  0  0  0  0  0  0  0  0  0  0  0
  -18.3399   -5.3918  -35.2678 C   0  0  0  0  0  0  0  0  0  0  0  0
  -22.6784   -6.0406  -33.4592 C   0  0  0  0  0  0  0  0  0  0  0  0
  -20.8647   -2.9088  -31.7799 C   0  0  0  0  0  0  0  0  0  0  0  0
  -27.6618   -7.9055  -20.9828 C   0  0  0  0  0  0  0  0  0  0  0  0
  -28.8508   -5.8264  -21.7710 C   0  0  0  0  0  0  0  0  0  0  0  0
  -28.3998   -7.7095  -23.3859 C   0  0  0  0  0  0  0  0  0  0  0  0
  -26.6604   -5.3405  -23.6070 C   0  0  0  0  0  0  0  0  0  0  0  0
  -19.2868   -5.2243  -26.6637 C   0  0  0  0  0  0  0  0  0  0  0  0
  -19.8066   -5.3464  -28.1029 C   0  0  0  0  0  0  0  0  0  0  0  0
  -27.8959   -6.9553  -22.1563 C   0  0  0  0  0  0  0  0  0  0  0  0
  -22.6436   -4.7787  -26.4520 N   0  0  0  0  0  0  0  0  0  0  0  0
  -26.5887   -6.3410  -22.5076 N   0  3  0  0  0  0  0  0  0  0  0  0
  -21.4081   -2.8279  -26.8865 O   0  0  0  0  0  0  0  0  0  0  0  0
  -24.7505   -2.6362  -28.0936 O   0  0  0  0  0  0  0  0  0  0  0  0
  -25.1087   -5.9928  -25.8943 O   0  0  0  0  0  0  0  0  0  0  0  0
  -21.5452   -7.8328  -37.6510 O   0  0  0  0  0  0  0  0  0  0  0  0
  -20.3280   -7.5952  -32.3775 O   0  0  0  0  0  0  0  0  0  0  0  0
  -22.8635   -2.4554  -29.4140 O   0  0  0  0  0  0  0  0  0  0  0  0
  -23.0133   -1.9210  -22.2132 Cl  0  0  0  0  0  0  0  0  0  0  0  0
  -25.4218   -3.4562  -22.1452 H   0  0  0  0  0  0  0  0  0  0  0  0
  -21.9425   -2.9883  -24.6352 H   0  0  0  0  0  0  0  0  0  0  0  0
  -17.7456   -6.7101  -27.1073 H   0  0  0  0  0  0  0  0  0  0  0  0
  -21.7739   -3.4840  -36.5422 H   0  0  0  0  0  0  0  0  0  0  0  0
  -20.2606   -3.3153  -35.6839 H   0  0  0  0  0  0  0  0  0  0  0  0
  -18.3325   -7.6945  -36.8436 H   0  0  0  0  0  0  0  0  0  0  0  0
  -19.5071   -8.9895  -36.7080 H   0  0  0  0  0  0  0  0  0  0  0  0
  -21.8357   -2.8048  -34.0873 H   0  0  0  0  0  0  0  0  0  0  0  0
  -23.0325   -3.8895  -34.6919 H   0  0  0  0  0  0  0  0  0  0  0  0
  -20.7037   -7.9143  -34.9385 H   0  0  0  0  0  0  0  0  0  0  0  0
  -18.9891   -7.9223  -34.5392 H   0  0  0  0  0  0  0  0  0  0  0  0
  -19.1416   -4.8389  -30.8903 H   0  0  0  0  0  0  0  0  0  0  0  0
  -19.5559   -6.4130  -30.2143 H   0  0  0  0  0  0  0  0  0  0  0  0
  -23.8497   -4.6907  -31.5789 H   0  0  0  0  0  0  0  0  0  0  0  0
  -23.5359   -2.9623  -31.7841 H   0  0  0  0  0  0  0  0  0  0  0  0
  -21.8879   -6.1605  -30.8623 H   0  0  0  0  0  0  0  0  0  0  0  0
  -23.8769   -4.2406  -29.3248 H   0  0  0  0  0  0  0  0  0  0  0  0
  -21.7440   -5.9285  -35.9726 H   0  0  0  0  0  0  0  0  0  0  0  0
  -19.5432   -4.5375  -33.4296 H   0  0  0  0  0  0  0  0  0  0  0  0
  -19.3733   -5.2469  -37.7151 H   0  0  0  0  0  0  0  0  0  0  0  0
  -19.8335   -7.4560  -38.6960 H   0  0  0  0  0  0  0  0  0  0  0  0
  -18.5846   -6.5543  -32.5227 H   0  0  0  0  0  0  0  0  0  0  0  0
  -14.8770   -5.6335  -26.2965 H   0  0  0  0  0  0  0  0  0  0  0  0
  -15.1187   -5.9522  -24.5805 H   0  0  0  0  0  0  0  0  0  0  0  0
  -15.6550   -7.1373  -25.7655 H   0  0  0  0  0  0  0  0  0  0  0  0
  -17.4996   -4.4706  -23.8531 H   0  0  0  0  0  0  0  0  0  0  0  0
  -16.1528   -3.6580  -24.6593 H   0  0  0  0  0  0  0  0  0  0  0  0
  -17.7891   -3.4872  -25.3056 H   0  0  0  0  0  0  0  0  0  0  0  0
  -22.8964   -0.4911  -27.3372 H   0  0  0  0  0  0  0  0  0  0  0  0
  -24.4901   -0.0341  -28.0318 H   0  0  0  0  0  0  0  0  0  0  0  0
  -23.0419   -0.0753  -29.0573 H   0  0  0  0  0  0  0  0  0  0  0  0
  -22.3013   -5.4916  -38.4370 H   0  0  0  0  0  0  0  0  0  0  0  0
  -20.9451   -5.3390  -39.5704 H   0  0  0  0  0  0  0  0  0  0  0  0
  -21.3294   -4.0075  -38.4625 H   0  0  0  0  0  0  0  0  0  0  0  0
  -18.3611   -4.3237  -35.1383 H   0  0  0  0  0  0  0  0  0  0  0  0
  -18.0615   -5.6534  -36.2738 H   0  0  0  0  0  0  0  0  0  0  0  0
  -17.6828   -5.8547  -34.5522 H   0  0  0  0  0  0  0  0  0  0  0  0
  -22.4609   -6.7764  -32.7017 H   0  0  0  0  0  0  0  0  0  0  0  0
  -22.5903   -6.4697  -34.4443 H   0  0  0  0  0  0  0  0  0  0  0  0
  -23.6605   -5.6205  -33.3123 H   0  0  0  0  0  0  0  0  0  0  0  0
  -19.8787   -3.1350  -32.1425 H   0  0  0  0  0  0  0  0  0  0  0  0
  -20.8416   -2.6107  -30.7478 H   0  0  0  0  0  0  0  0  0  0  0  0
  -21.3435   -2.1650  -32.3902 H   0  0  0  0  0  0  0  0  0  0  0  0
  -26.9772   -8.7167  -21.2557 H   0  0  0  0  0  0  0  0  0  0  0  0
  -27.2239   -7.3738  -20.1307 H   0  0  0  0  0  0  0  0  0  0  0  0
  -28.5994   -8.3609  -20.6440 H   0  0  0  0  0  0  0  0  0  0  0  0
  -29.0211   -5.1427  -22.6104 H   0  0  0  0  0  0  0  0  0  0  0  0
  -28.4563   -5.2363  -20.9359 H   0  0  0  0  0  0  0  0  0  0  0  0
  -29.8244   -6.2253  -21.4649 H   0  0  0  0  0  0  0  0  0  0  0  0
  -28.5689   -7.0309  -24.2298 H   0  0  0  0  0  0  0  0  0  0  0  0
  -27.6727   -8.4638  -23.7068 H   0  0  0  0  0  0  0  0  0  0  0  0
  -29.3445   -8.2254  -23.1791 H   0  0  0  0  0  0  0  0  0  0  0  0
  -27.4137   -4.6015  -23.3041 H   0  0  0  0  0  0  0  0  0  0  0  0
  -27.0556   -5.8713  -24.4831 H   0  0  0  0  0  0  0  0  0  0  0  0
  -20.0195   -5.6375  -25.9652 H   0  0  0  0  0  0  0  0  0  0  0  0
  -19.2099   -4.1583  -26.4143 H   0  0  0  0  0  0  0  0  0  0  0  0
  -19.8672   -6.4080  -28.3771 H   0  0  0  0  0  0  0  0  0  0  0  0
  -19.0677   -4.9057  -28.7842 H   0  0  0  0  0  0  0  0  0  0  0  0
  -22.7647   -5.7384  -26.7693 H   0  0  0  0  0  0  0  0  0  0  0  0
  -25.9267   -7.0830  -22.7714 H   0  0  0  0  0  0  0  0  0  0  0  0
  -26.1900   -5.8931  -21.6715 H   0  0  0  0  0  0  0  0  0  0  0  0
  -25.9628   -6.3202  -25.5737 H   0  0  0  0  0  0  0  0  0  0  0  0
  -21.4109   -8.7745  -37.8330 H   0  0  0  0  0  0  0  0  0  0  0  0
  -19.9179   -8.1307  -31.6806 H   0  0  0  0  0  0  0  0  0  0  0  0
  1  3  1  0  0  0  0
  1  6  2  0  0  0  0
  2  4  2  0  0  0  0
  2  6  1  0  0  0  0
  3  5  2  0  0  0  0
  3 39  1  0  0  0  0
  4  5  1  0  0  0  0
  4 43  1  0  0  0  0
  5 47  1  0  0  0  0
  6 51  1  0  0  0  0
  7  9  2  0  0  0  0
  7 19  1  0  0  0  0
  7 20  1  0  0  0  0
  8 10  2  0  0  0  0
  8 40  1  0  0  0  0
  9 11  1  0  0  0  0
  9 41  1  0  0  0  0
 10 29  1  0  0  0  0
 10 30  1  0  0  0  0
 11 43  1  0  0  0  0
 11 45  2  0  0  0  0
 12 31  1  0  0  0  0
 12 46  2  0  0  0  0
 12 50  1  0  0  0  0
 13 15  1  0  0  0  0
 13 21  1  0  0  0  0
 14 16  1  0  0  0  0
 14 24  1  0  0  0  0
 15 27  1  0  0  0  0
 16 26  1  0  0  0  0
 17 19  1  0  0  0  0
 17 25  1  0  0  0  0
 18 20  1  0  0  0  0
 18 28  1  0  0  0  0
 19 28  1  0  0  0  0
 20 50  1  0  0  0  0
 21 23  1  0  0  0  0
 21 26  1  0  0  0  0
 22 25  1  0  0  0  0
 22 26  1  0  0  0  0
 22 27  1  0  0  0  0
 23 24  1  0  0  0  0
 23 32  1  0  0  0  0
 24 48  1  0  0  0  0
 25 49  1  0  0  0  0
 26 33  1  0  0  0  0
 27 28  1  0  0  0  0
 27 34  1  0  0  0  0
 28 35  1  0  0  0  0
 36 42  1  0  0  0  0
 37 42  1  0  0  0  0
 38 42  1  0  0  0  0
 39 44  1  0  0  0  0
 40 41  1  0  0  0  0
 42 44  1  0  0  0  0
  1 52  1  0  0  0  0
  2 53  1  0  0  0  0
  8 54  1  0  0  0  0
 13 55  1  0  0  0  0
 13 56  1  0  0  0  0
 14 57  1  0  0  0  0
 14 58  1  0  0  0  0
 15 59  1  0  0  0  0
 15 60  1  0  0  0  0
 16 61  1  0  0  0  0
 16 62  1  0  0  0  0
 17 63  1  0  0  0  0
 17 64  1  0  0  0  0
 18 65  1  0  0  0  0
 18 66  1  0  0  0  0
 19 67  1  0  0  0  0
 20 68  1  0  0  0  0
 21 69  1  0  0  0  0
 22 70  1  0  0  0  0
 23 71  1  0  0  0  0
 24 72  1  0  0  0  0
 25 73  1  0  0  0  0
 29 74  1  0  0  0  0
 29 75  1  0  0  0  0
 29 76  1  0  0  0  0
 30 77  1  0  0  0  0
 30 78  1  0  0  0  0
 30 79  1  0  0  0  0
 31 80  1  0  0  0  0
 31 81  1  0  0  0  0
 31 82  1  0  0  0  0
 32 83  1  0  0  0  0
 32 84  1  0  0  0  0
 32 85  1  0  0  0  0
 33 86  1  0  0  0  0
 33 87  1  0  0  0  0
 33 88  1  0  0  0  0
 34 89  1  0  0  0  0
 34 90  1  0  0  0  0
 34 91  1  0  0  0  0
 35 92  1  0  0  0  0
 35 93  1  0  0  0  0
 35 94  1  0  0  0  0
 36 95  1  0  0  0  0
 36 96  1  0  0  0  0
 36 97  1  0  0  0  0
 37 98  1  0  0  0  0
 37 99  1  0  0  0  0
 37100  1  0  0  0  0
 38101  1  0  0  0  0
 38102  1  0  0  0  0
 38103  1  0  0  0  0
 39104  1  0  0  0  0
 39105  1  0  0  0  0
 40106  1  0  0  0  0
 40107  1  0  0  0  0
 41108  1  0  0  0  0
 41109  1  0  0  0  0
 43110  1  0  0  0  0
 44111  1  0  0  0  0
 44112  1  0  0  0  0
 47113  1  0  0  0  0
 48114  1  0  0  0  0
 49115  1  0  0  0  0
M  CHG  1  44   1
M  END
> <SMILES>
C[C@@H]1[C@H](O)CC[C@@]2(C)C1CC[C@@]1(C)[C@H]2[C@H](O)C[C@H]2/C(=C(\CCC=C(C)C)C(=O)Nc3cc(cc(c3O)CNC(C)(C)C)Cl)[C@H](C[C@@]21C)OC(=O)C

> <FORMATTED_ID>
H3D-008273

> <MOLFORMULA>
C42H63ClN2O6

> <Exact Mass>
726.44

> <XLogP>
8.25

> <TPSA_NOPS>
128.1

> <s_m_source_file>
ligprep_h3d.sdf

> <i_m_source_file_index>
2723

> <i_lp_mmshare_version>
55123

> <i_f3d_flags>
0

> <s_epik_input>
W0NIMl0xW0NIMl1bQ0BASF0oW09IXSlbQ0BASF0oW0NIM10pW0NAQEhdKFtDQF0xMltDSDNdKVtDSDJdW0NIMl1bQ0BAXTMoW0NIM10pW0NASF0yW0NASF0oW09IXSlbQ0gyXVtDQEBIXTRbQ0BdMyhbQ0gzXSlbQ0gyXVtDQEhdKE9DKD1PKVtDSDNdKUNcND1DKFxbQ0gyXVtDSDJdW0NIXT1DKFtDSDNdKVtDSDNdKUMoPU8pW05IXWM1W2NIXWMoQ2wpW2NIXWMoYzVbT0hdKVtDSDJdW05IXUMoW0NIM10pKFtDSDNdKVtDSDNd

> <s_epik_cmdline>
J2VwaWtfcHl0aG9uJywgJy1waHQnLCAnMC41JywgJy1waCcsICc3LjUnLCAnLXRuJywgJzgnLCAnLW1hJywgJzUwMCcsICctaW1hZScsICc8aW5maWxlLm1hZT4nLCAnLW9tYWUnLCAnPG91dGZpbGUubWFlPic=

> <r_lp_tautomer_probability>
1

> <r_epik_Ionization_Penalty>
0.204752

> <r_epik_Ionization_Penalty_Charging>
0.0162292

> <r_epik_Ionization_Penalty_Neutral>
0.188523

> <r_epik_State_Penalty>
-0

> <r_epik_Charging_Adjusted_Penalty>
0.0162292

> <i_epik_Tot_Q>
1

> <i_epik_Tot_abs_Q>
1

> <s_epik_Chemistry_Notes>
This compound has an ester and may undergo hydrolysis at high or low pH.

> <s_lp_Force_Field>
S-OPLS

> <r_lp_Energy>
93.8391

> <b_lp_Chiralities_Consistent>
1

> <s_lp_Variant>
ligprep_h3d.sdf:2723-1

> <ROCS_ShapeQuery>
_7L13

> <ROCS_TanimotoCombo>
0.648 

> <ROCS_ShapeTanimoto>
0.571 

> <ROCS_ColorTanimoto>
0.077 

> <ROCS_RefTversky>
0.837 

> <ROCS_RefColorTversky>
0.210 

> <ROCS_RefTverskyCombo>
1.047 

> <ROCS_FitTversky>
0.643 

> <ROCS_FitColorTversky>
0.108 

> <ROCS_FitTverskyCombo>
0.751 

> <ROCS_ColorScore>
-1.996

> <ROCS_Overlap>
1412.781

> <ROCS_Rank>
13                  

$$$$
ligprep_h3d.sdf:5438_359
  -OEChem-08212117123D

 65 70  0     0  0  0  0  0  0999 V2000
  -21.2049   -4.4134  -34.3257 C   0  0  0  0  0  0  0  0  0  0  0  0
  -21.1169   -6.2238  -32.7282 C   0  0  0  0  0  0  0  0  0  0  0  0
  -20.2814   -5.0795  -35.1314 C   0  0  0  0  0  0  0  0  0  0  0  0
  -20.1934   -6.8899  -33.5339 C   0  0  0  0  0  0  0  0  0  0  0  0
  -20.9668   -4.0143  -29.2397 C   0  0  0  0  0  0  0  0  0  0  0  0
  -23.5357   -3.8920  -28.0768 C   0  0  0  0  0  0  0  0  0  0  0  0
  -27.2712   -5.6345  -23.0998 C   0  0  0  0  0  0  0  0  0  0  0  0
  -26.5444   -4.6551  -22.4649 C   0  0  0  0  0  0  0  0  0  0  0  0
  -21.1449   -4.2773  -27.8870 C   0  0  0  0  0  0  0  0  0  0  0  0
  -21.6226   -4.9856  -33.1241 C   0  0  0  0  0  0  0  0  0  0  0  0
  -22.4190   -4.2146  -27.3194 C   0  0  0  0  0  0  0  0  0  0  0  0
  -22.0819   -3.6882  -30.0142 C   0  0  0  0  0  0  0  0  0  0  0  0
  -23.3574   -3.6276  -29.4362 C   0  0  0  0  0  0  0  0  0  0  0  0
  -19.7757   -6.3177  -34.7355 C   0  0  0  0  0  0  0  0  0  0  0  0
  -25.5192   -5.3736  -24.2959 C   0  0  0  0  0  0  0  0  0  0  0  0
  -24.4501   -5.3782  -25.2392 C   0  0  0  0  0  0  0  0  0  0  0  0
  -23.3436   -3.6357  -23.9437 C   0  0  0  0  0  0  0  0  0  0  0  0
  -24.3464   -3.6246  -23.0511 C   0  0  0  0  0  0  0  0  0  0  0  0
  -23.3900   -4.5492  -25.0908 C   0  0  0  0  0  0  0  0  0  0  0  0
  -19.0488   -3.5255  -26.7019 C   0  0  0  0  0  0  0  0  0  0  0  0
  -19.3971   -5.9723  -27.2262 C   0  0  0  0  0  0  0  0  0  0  0  0
  -20.9651   -4.7979  -25.5782 C   0  0  0  0  0  0  0  0  0  0  0  0
  -17.9245   -3.9003  -25.7430 C   0  0  0  0  0  0  0  0  0  0  0  0
  -18.2705   -6.3296  -26.2635 C   0  0  0  0  0  0  0  0  0  0  0  0
  -20.0929   -4.6473  -26.8605 C   0  0  0  0  0  0  0  0  0  0  0  0
  -16.0871   -5.5394  -25.3583 C   0  0  0  0  0  0  0  0  0  0  0  0
  -24.7785   -1.9275  -30.2998 C   0  0  0  0  0  0  0  0  0  0  0  0
  -22.6167   -4.2700  -32.2573 C   0  0  0  0  0  0  0  0  0  0  0  0
  -26.6327   -6.0749  -24.2312 N   0  0  0  0  0  0  0  0  0  0  0  0
  -25.4200   -4.4869  -23.2312 N   0  0  0  0  0  0  0  0  0  0  0  0
  -22.3543   -4.5149  -25.9548 N   0  0  0  0  0  0  0  0  0  0  0  0
  -17.2849   -5.1889  -26.1979 N   0  3  0  0  0  0  0  0  0  0  0  0
  -24.4416   -3.3090  -30.1997 O   0  0  0  0  0  0  0  0  0  0  0  0
  -21.9166   -3.4297  -31.3425 O   0  0  0  0  0  0  0  0  0  0  0  0
  -18.8909   -6.9587  -35.5104 F   0  0  0  0  0  0  0  0  0  0  0  0
  -21.5927   -3.4487  -34.6421 H   0  0  0  0  0  0  0  0  0  0  0  0
  -21.4369   -6.6774  -31.7938 H   0  0  0  0  0  0  0  0  0  0  0  0
  -19.9566   -4.6345  -36.0671 H   0  0  0  0  0  0  0  0  0  0  0  0
  -19.7992   -7.8537  -33.2258 H   0  0  0  0  0  0  0  0  0  0  0  0
  -19.9798   -4.0608  -29.6895 H   0  0  0  0  0  0  0  0  0  0  0  0
  -24.5282   -3.8424  -27.6423 H   0  0  0  0  0  0  0  0  0  0  0  0
  -28.2239   -6.0448  -22.7982 H   0  0  0  0  0  0  0  0  0  0  0  0
  -26.7236   -4.0821  -21.5655 H   0  0  0  0  0  0  0  0  0  0  0  0
  -24.5085   -6.0642  -26.0788 H   0  0  0  0  0  0  0  0  0  0  0  0
  -22.4930   -2.9726  -23.8274 H   0  0  0  0  0  0  0  0  0  0  0  0
  -24.3582   -2.9688  -22.1890 H   0  0  0  0  0  0  0  0  0  0  0  0
  -19.5272   -2.6008  -26.3530 H   0  0  0  0  0  0  0  0  0  0  0  0
  -18.6059   -3.2824  -27.6772 H   0  0  0  0  0  0  0  0  0  0  0  0
  -18.9799   -5.9115  -28.2406 H   0  0  0  0  0  0  0  0  0  0  0  0
  -20.1240   -6.7946  -27.2519 H   0  0  0  0  0  0  0  0  0  0  0  0
  -20.9024   -5.8099  -25.1600 H   0  0  0  0  0  0  0  0  0  0  0  0
  -20.6542   -4.1009  -24.7904 H   0  0  0  0  0  0  0  0  0  0  0  0
  -17.1467   -3.1294  -25.7480 H   0  0  0  0  0  0  0  0  0  0  0  0
  -18.2799   -4.0480  -24.7180 H   0  0  0  0  0  0  0  0  0  0  0  0
  -18.6318   -6.5171  -25.2470 H   0  0  0  0  0  0  0  0  0  0  0  0
  -17.7278   -7.2105  -26.6221 H   0  0  0  0  0  0  0  0  0  0  0  0
  -16.4332   -5.7088  -24.3370 H   0  0  0  0  0  0  0  0  0  0  0  0
  -15.6390   -6.4429  -25.7760 H   0  0  0  0  0  0  0  0  0  0  0  0
  -15.3909   -4.6996  -25.4024 H   0  0  0  0  0  0  0  0  0  0  0  0
  -25.6597   -1.8117  -30.9357 H   0  0  0  0  0  0  0  0  0  0  0  0
  -23.9355   -1.3757  -30.7232 H   0  0  0  0  0  0  0  0  0  0  0  0
  -24.9992   -1.5422  -29.3016 H   0  0  0  0  0  0  0  0  0  0  0  0
  -23.2924   -3.6552  -32.8615 H   0  0  0  0  0  0  0  0  0  0  0  0
  -23.2257   -4.9852  -31.6940 H   0  0  0  0  0  0  0  0  0  0  0  0
  -16.9335   -5.0344  -27.1530 H   0  0  0  0  0  0  0  0  0  0  0  0
  1  3  1  0  0  0  0
  1 10  2  0  0  0  0
  2  4  2  0  0  0  0
  2 10  1  0  0  0  0
  3 14  2  0  0  0  0
  4 14  1  0  0  0  0
  5  9  1  0  0  0  0
  5 12  2  0  0  0  0
  6 11  1  0  0  0  0
  6 13  2  0  0  0  0
  7  8  2  0  0  0  0
  7 29  1  0  0  0  0
  8 30  1  0  0  0  0
  9 11  2  0  0  0  0
  9 25  1  0  0  0  0
 10 28  1  0  0  0  0
 11 31  1  0  0  0  0
 12 13  1  0  0  0  0
 12 34  1  0  0  0  0
 13 33  1  0  0  0  0
 14 35  1  0  0  0  0
 15 16  1  0  0  0  0
 15 29  2  0  0  0  0
 15 30  1  0  0  0  0
 16 19  2  0  0  0  0
 17 18  2  0  0  0  0
 17 19  1  0  0  0  0
 18 30  1  0  0  0  0
 19 31  1  0  0  0  0
 20 23  1  0  0  0  0
 20 25  1  0  0  0  0
 21 24  1  0  0  0  0
 21 25  1  0  0  0  0
 22 25  1  0  0  0  0
 22 31  1  0  0  0  0
 23 32  1  0  0  0  0
 24 32  1  0  0  0  0
 26 32  1  0  0  0  0
 27 33  1  0  0  0  0
 28 34  1  0  0  0  0
  1 36  1  0  0  0  0
  2 37  1  0  0  0  0
  3 38  1  0  0  0  0
  4 39  1  0  0  0  0
  5 40  1  0  0  0  0
  6 41  1  0  0  0  0
  7 42  1  0  0  0  0
  8 43  1  0  0  0  0
 16 44  1  0  0  0  0
 17 45  1  0  0  0  0
 18 46  1  0  0  0  0
 20 47  1  0  0  0  0
 20 48  1  0  0  0  0
 21 49  1  0  0  0  0
 21 50  1  0  0  0  0
 22 51  1  0  0  0  0
 22 52  1  0  0  0  0
 23 53  1  0  0  0  0
 23 54  1  0  0  0  0
 24 55  1  0  0  0  0
 24 56  1  0  0  0  0
 26 57  1  0  0  0  0
 26 58  1  0  0  0  0
 26 59  1  0  0  0  0
 27 60  1  0  0  0  0
 27 61  1  0  0  0  0
 27 62  1  0  0  0  0
 28 63  1  0  0  0  0
 28 64  1  0  0  0  0
 32 65  1  0  0  0  0
M  CHG  1  32   1
M  END
> <SMILES>
COc1cc2c(cc1OCc1ccc(cc1)F)C1(CCN(C)CC1)CN2c1ccn2ccnc2c1

> <FORMATTED_ID>
H3D-016044

> <MOLFORMULA>
C28H29FN4O2

> <Exact Mass>
472.23

> <XLogP>
6.17

> <TPSA_NOPS>
42.2

> <s_m_source_file>
ligprep_h3d.sdf

> <i_m_source_file_index>
5438

> <i_lp_mmshare_version>
55123

> <i_f3d_flags>
0

> <s_epik_input>
W0NIMl0xW0NIMl1OKFtDSDNdKVtDSDJdW0NIMl1DMTJjM2MoTihbQ0gyXTIpYyhbY0hdW2NIXTQpW2NIXWMobjQ1KW5bY0hdW2NIXTUpW2NIXWMoT1tDSDNdKWMoW2NIXTMpT1tDSDJdYzZbY0hdW2NIXWMoRilbY0hdW2NIXTY=

> <s_epik_cmdline>
J2VwaWtfcHl0aG9uJywgJy1waHQnLCAnMC41JywgJy1waCcsICc3LjUnLCAnLXRuJywgJzgnLCAnLW1hJywgJzUwMCcsICctaW1hZScsICc8aW5maWxlLm1hZT4nLCAnLW9tYWUnLCAnPG91dGZpbGUubWFlPic=

> <r_lp_tautomer_probability>
1

> <r_epik_Ionization_Penalty>
0.43281

> <r_epik_Ionization_Penalty_Charging>
0.43281

> <r_epik_Ionization_Penalty_Neutral>
1.86305e-10

> <r_epik_State_Penalty>
0.425628

> <r_epik_Charging_Adjusted_Penalty>
0.858438

> <i_epik_Tot_Q>
1

> <i_epik_Tot_abs_Q>
1

> <s_lp_Force_Field>
S-OPLS

> <r_lp_Energy>
69.0384

> <b_lp_Chiralities_Consistent>
1

> <s_lp_Variant>
ligprep_h3d.sdf:5438-2

> <ROCS_ShapeQuery>
_7L13

> <ROCS_TanimotoCombo>
0.836 

> <ROCS_ShapeTanimoto>
0.727 

> <ROCS_ColorTanimoto>
0.109 

> <ROCS_RefTversky>
0.836 

> <ROCS_RefColorTversky>
0.216 

> <ROCS_RefTverskyCombo>
1.053 

> <ROCS_FitTversky>
0.848 

> <ROCS_FitColorTversky>
0.180 

> <ROCS_FitTverskyCombo>
1.028 

> <ROCS_ColorScore>
-1.970

> <ROCS_Overlap>
1387.589

> <ROCS_Rank>
14                  

$$$$
ligprep_h3d.sdf:5421_27
  -OEChem-08212117123D

 72 78  0     0  0  0  0  0  0999 V2000
  -19.9258   -6.4067  -33.4587 C   0  0  0  0  0  0  0  0  0  0  0  0
  -18.9132   -4.2791  -33.9928 C   0  0  0  0  0  0  0  0  0  0  0  0
  -19.8510   -6.7792  -34.8008 C   0  0  0  0  0  0  0  0  0  0  0  0
  -18.8384   -4.6517  -35.3349 C   0  0  0  0  0  0  0  0  0  0  0  0
  -26.6761   -4.8107  -22.8330 C   0  0  0  0  0  0  0  0  0  0  0  0
  -25.0578   -3.4957  -21.6267 C   0  0  0  0  0  0  0  0  0  0  0  0
  -23.2313   -4.2726  -28.6507 C   0  0  0  0  0  0  0  0  0  0  0  0
  -20.4409   -4.3236  -29.0304 C   0  0  0  0  0  0  0  0  0  0  0  0
  -14.8306   -4.4933  -25.7774 C   0  0  0  0  0  0  0  0  0  0  0  0
  -27.5167   -4.7305  -21.7319 C   0  0  0  0  0  0  0  0  0  0  0  0
  -25.9394   -3.4487  -20.5561 C   0  0  0  0  0  0  0  0  0  0  0  0
  -14.6577   -5.7267  -25.2060 C   0  0  0  0  0  0  0  0  0  0  0  0
  -22.3651   -4.3998  -27.5715 C   0  0  0  0  0  0  0  0  0  0  0  0
  -19.4569   -5.1566  -33.0547 C   0  0  0  0  0  0  0  0  0  0  0  0
  -25.4344   -4.1852  -22.7754 C   0  0  0  0  0  0  0  0  0  0  0  0
  -20.9765   -4.4279  -27.7518 C   0  0  0  0  0  0  0  0  0  0  0  0
  -22.6925   -4.1768  -29.9330 C   0  0  0  0  0  0  0  0  0  0  0  0
  -21.3056   -4.2010  -30.1216 C   0  0  0  0  0  0  0  0  0  0  0  0
  -19.3073   -5.9017  -35.7389 C   0  0  0  0  0  0  0  0  0  0  0  0
  -16.8128   -5.4767  -25.6275 C   0  0  0  0  0  0  0  0  0  0  0  0
  -18.2863   -5.6174  -25.7769 C   0  0  0  0  0  0  0  0  0  0  0  0
  -18.1725   -3.3932  -26.7450 C   0  0  0  0  0  0  0  0  0  0  0  0
  -16.8377   -3.2920  -26.5984 C   0  0  0  0  0  0  0  0  0  0  0  0
  -18.9461   -4.5774  -26.3317 C   0  0  0  0  0  0  0  0  0  0  0  0
  -23.7404   -5.5591  -25.7864 C   0  0  0  0  0  0  0  0  0  0  0  0
  -23.2198   -3.1105  -25.6010 C   0  0  0  0  0  0  0  0  0  0  0  0
  -24.1249   -5.5823  -24.3075 C   0  0  0  0  0  0  0  0  0  0  0  0
  -23.6540   -3.1330  -24.1329 C   0  0  0  0  0  0  0  0  0  0  0  0
  -21.3003   -4.8179  -25.5003 C   0  0  0  0  0  0  0  0  0  0  0  0
  -22.7003   -4.4718  -26.1012 C   0  0  0  0  0  0  0  0  0  0  0  0
  -23.8912   -2.7302  -31.3911 C   0  0  0  0  0  0  0  0  0  0  0  0
  -19.5364   -4.7555  -31.6110 C   0  0  0  0  0  0  0  0  0  0  0  0
  -16.1795   -4.3596  -26.0312 N   0  0  0  0  0  0  0  0  0  0  0  0
  -27.1290   -4.0600  -20.6384 N   0  3  0  0  0  0  0  0  0  0  0  0
  -15.8997   -6.3124  -25.1259 N   0  3  0  0  0  0  0  0  0  0  0  0
  -20.2868   -4.5611  -26.5309 N   0  0  0  0  0  0  0  0  0  0  0  0
  -24.5643   -4.2514  -23.8707 N   0  0  0  0  0  0  0  0  0  0  0  0
  -23.5310   -4.0533  -31.0007 O   0  0  0  0  0  0  0  0  0  0  0  0
  -20.7821   -4.1032  -31.3771 O   0  0  0  0  0  0  0  0  0  0  0  0
  -19.2330   -6.2604  -37.0273 F   0  0  0  0  0  0  0  0  0  0  0  0
  -20.3518   -7.0969  -32.7352 H   0  0  0  0  0  0  0  0  0  0  0  0
  -18.5451   -3.3032  -33.6872 H   0  0  0  0  0  0  0  0  0  0  0  0
  -20.2153   -7.7525  -35.1153 H   0  0  0  0  0  0  0  0  0  0  0  0
  -18.4156   -3.9686  -36.0656 H   0  0  0  0  0  0  0  0  0  0  0  0
  -26.9912   -5.3550  -23.7180 H   0  0  0  0  0  0  0  0  0  0  0  0
  -24.0938   -3.0012  -21.5580 H   0  0  0  0  0  0  0  0  0  0  0  0
  -24.3057   -4.2382  -28.5011 H   0  0  0  0  0  0  0  0  0  0  0  0
  -19.3683   -4.3409  -29.1968 H   0  0  0  0  0  0  0  0  0  0  0  0
  -14.1739   -3.6858  -26.0403 H   0  0  0  0  0  0  0  0  0  0  0  0
  -28.4959   -5.1862  -21.6870 H   0  0  0  0  0  0  0  0  0  0  0  0
  -25.7319   -2.9369  -19.6263 H   0  0  0  0  0  0  0  0  0  0  0  0
  -13.8218   -6.2873  -24.8369 H   0  0  0  0  0  0  0  0  0  0  0  0
  -18.7749   -6.5252  -25.4452 H   0  0  0  0  0  0  0  0  0  0  0  0
  -18.7193   -2.5663  -27.1895 H   0  0  0  0  0  0  0  0  0  0  0  0
  -16.2605   -2.4271  -26.8984 H   0  0  0  0  0  0  0  0  0  0  0  0
  -23.3674   -6.5486  -26.0806 H   0  0  0  0  0  0  0  0  0  0  0  0
  -24.6521   -5.3954  -26.3767 H   0  0  0  0  0  0  0  0  0  0  0  0
  -24.0805   -2.7956  -26.2074 H   0  0  0  0  0  0  0  0  0  0  0  0
  -22.4573   -2.3322  -25.7364 H   0  0  0  0  0  0  0  0  0  0  0  0
  -24.9333   -6.3114  -24.1691 H   0  0  0  0  0  0  0  0  0  0  0  0
  -23.2761   -5.9144  -23.6967 H   0  0  0  0  0  0  0  0  0  0  0  0
  -22.7776   -3.2052  -23.4775 H   0  0  0  0  0  0  0  0  0  0  0  0
  -24.1501   -2.1812  -23.9036 H   0  0  0  0  0  0  0  0  0  0  0  0
  -21.0820   -4.2391  -24.5959 H   0  0  0  0  0  0  0  0  0  0  0  0
  -21.2459   -5.8795  -25.2243 H   0  0  0  0  0  0  0  0  0  0  0  0
  -24.5619   -2.7736  -32.2528 H   0  0  0  0  0  0  0  0  0  0  0  0
  -22.9901   -2.1663  -31.6454 H   0  0  0  0  0  0  0  0  0  0  0  0
  -24.4023   -2.2406  -30.5588 H   0  0  0  0  0  0  0  0  0  0  0  0
  -19.4632   -5.6309  -30.9566 H   0  0  0  0  0  0  0  0  0  0  0  0
  -18.7194   -4.0732  -31.3526 H   0  0  0  0  0  0  0  0  0  0  0  0
  -27.7615   -4.0137  -19.8400 H   0  0  0  0  0  0  0  0  0  0  0  0
  -16.0921   -7.2348  -24.7450 H   0  0  0  0  0  0  0  0  0  0  0  0
  1  3  1  0  0  0  0
  1 14  2  0  0  0  0
  2  4  2  0  0  0  0
  2 14  1  0  0  0  0
  3 19  2  0  0  0  0
  4 19  1  0  0  0  0
  5 10  1  0  0  0  0
  5 15  2  0  0  0  0
  6 11  2  0  0  0  0
  6 15  1  0  0  0  0
  7 13  1  0  0  0  0
  7 17  2  0  0  0  0
  8 16  1  0  0  0  0
  8 18  2  0  0  0  0
  9 12  2  0  0  0  0
  9 33  1  0  0  0  0
 10 34  2  0  0  0  0
 11 34  1  0  0  0  0
 12 35  1  0  0  0  0
 13 16  2  0  0  0  0
 13 30  1  0  0  0  0
 14 32  1  0  0  0  0
 15 37  1  0  0  0  0
 16 36  1  0  0  0  0
 17 18  1  0  0  0  0
 17 38  1  0  0  0  0
 18 39  1  0  0  0  0
 19 40  1  0  0  0  0
 20 21  1  0  0  0  0
 20 33  1  0  0  0  0
 20 35  2  0  0  0  0
 21 24  2  0  0  0  0
 22 23  2  0  0  0  0
 22 24  1  0  0  0  0
 23 33  1  0  0  0  0
 24 36  1  0  0  0  0
 25 27  1  0  0  0  0
 25 30  1  0  0  0  0
 26 28  1  0  0  0  0
 26 30  1  0  0  0  0
 27 37  1  0  0  0  0
 28 37  1  0  0  0  0
 29 30  1  0  0  0  0
 29 36  1  0  0  0  0
 31 38  1  0  0  0  0
 32 39  1  0  0  0  0
  1 41  1  0  0  0  0
  2 42  1  0  0  0  0
  3 43  1  0  0  0  0
  4 44  1  0  0  0  0
  5 45  1  0  0  0  0
  6 46  1  0  0  0  0
  7 47  1  0  0  0  0
  8 48  1  0  0  0  0
  9 49  1  0  0  0  0
 10 50  1  0  0  0  0
 11 51  1  0  0  0  0
 12 52  1  0  0  0  0
 21 53  1  0  0  0  0
 22 54  1  0  0  0  0
 23 55  1  0  0  0  0
 25 56  1  0  0  0  0
 25 57  1  0  0  0  0
 26 58  1  0  0  0  0
 26 59  1  0  0  0  0
 27 60  1  0  0  0  0
 27 61  1  0  0  0  0
 28 62  1  0  0  0  0
 28 63  1  0  0  0  0
 29 64  1  0  0  0  0
 29 65  1  0  0  0  0
 31 66  1  0  0  0  0
 31 67  1  0  0  0  0
 31 68  1  0  0  0  0
 32 69  1  0  0  0  0
 32 70  1  0  0  0  0
 34 71  1  0  0  0  0
 35 72  1  0  0  0  0
M  CHG  2  34   1  35   1
M  END
> <SMILES>
COc1cc2c(cc1OCc1ccc(cc1)F)N(CC12CCN(CC1)c1ccncc1)c1ccn2ccnc2c1

> <FORMATTED_ID>
H3D-015665

> <MOLFORMULA>
C32H30FN5O2

> <Exact Mass>
535.24

> <XLogP>
6.48

> <TPSA_NOPS>
55.1

> <s_m_source_file>
ligprep_h3d.sdf

> <i_m_source_file_index>
5421

> <i_lp_mmshare_version>
55123

> <i_f3d_flags>
0

> <s_epik_input>
W2NIXTFbY0hdYyhGKVtjSF1bY0hdYzFbQ0gyXU9jKGMoW2NIXTIpT1tDSDNdKVtjSF1jKE4oW0NIMl0zKWMoW2NIXVtjSF00KVtjSF1jKG40NSluW2NIXVtjSF01KWMyQzM2W0NIMl1bQ0gyXU4oW0NIMl1bQ0gyXTYpYzdbY0hdW2NIXW5bY0hdW2NIXTc=

> <s_epik_cmdline>
J2VwaWtfcHl0aG9uJywgJy1waHQnLCAnMC41JywgJy1waCcsICc3LjUnLCAnLXRuJywgJzgnLCAnLW1hJywgJzUwMCcsICctaW1hZScsICc8aW5maWxlLm1hZT4nLCAnLW9tYWUnLCAnPG91dGZpbGUubWFlPic=

> <r_lp_tautomer_probability>
1

> <r_epik_Ionization_Penalty>
0.313249

> <r_epik_Ionization_Penalty_Charging>
0.00596667

> <r_epik_Ionization_Penalty_Neutral>
0.307283

> <r_epik_State_Penalty>
0.301121

> <r_epik_Charging_Adjusted_Penalty>
0.307088

> <i_epik_Tot_Q>
2

> <i_epik_Tot_abs_Q>
2

> <s_lp_Force_Field>
S-OPLS

> <r_lp_Energy>
89.218

> <b_lp_Chiralities_Consistent>
1

> <s_lp_Variant>
ligprep_h3d.sdf:5421-1

> <ROCS_ShapeQuery>
_7L13

> <ROCS_TanimotoCombo>
0.703 

> <ROCS_ShapeTanimoto>
0.650 

> <ROCS_ColorTanimoto>
0.053 

> <ROCS_RefTversky>
0.835 

> <ROCS_RefColorTversky>
0.121 

> <ROCS_RefTverskyCombo>
0.957 

> <ROCS_FitTversky>
0.745 

> <ROCS_FitColorTversky>
0.087 

> <ROCS_FitTverskyCombo>
0.832 

> <ROCS_ColorScore>
-1.117

> <ROCS_Overlap>
1396.349

> <ROCS_Rank>
15                  

$$$$
ligprep_h3d.sdf:2378_796
  -OEChem-08212117123D

103107  0     1  0  0  0  0  0999 V2000
  -26.5392   -4.9906  -23.7487 C   0  0  0  0  0  0  0  0  0  0  0  0
  -26.0711   -4.9552  -25.0621 C   0  0  0  0  0  0  0  0  0  0  0  0
  -25.7287   -4.5391  -22.7070 C   0  0  0  0  0  0  0  0  0  0  0  0
  -24.7926   -4.4683  -25.3340 C   0  0  0  0  0  0  0  0  0  0  0  0
  -24.4502   -4.0522  -22.9789 C   0  0  0  0  0  0  0  0  0  0  0  0
  -23.9821   -4.0168  -24.2924 C   0  0  0  0  0  0  0  0  0  0  0  0
  -21.2958   -4.2909  -28.8936 C   0  0  0  0  0  0  0  0  0  0  0  0
  -17.5838   -5.8246  -25.8747 C   0  0  0  0  0  0  0  0  0  0  0  0
  -20.6454   -4.3200  -27.7245 C   0  0  0  0  0  0  0  0  0  0  0  0
  -16.3420   -5.3895  -25.5886 C   0  0  0  0  0  0  0  0  0  0  0  0
  -21.1352   -3.4781  -26.5891 C   0  0  0  0  0  0  0  0  0  0  0  0
  -21.6449   -3.7336  -23.4264 C   0  0  0  0  0  0  0  0  0  0  0  0
  -23.2885   -1.2534  -28.6387 C   0  0  0  0  0  0  0  0  0  0  0  0
  -20.9376   -4.1598  -35.1832 C   0  0  0  0  0  0  0  0  0  0  0  0
  -19.5826   -8.3373  -35.8108 C   0  0  0  0  0  0  0  0  0  0  0  0
  -21.6658   -3.8782  -33.8574 C   0  0  0  0  0  0  0  0  0  0  0  0
  -19.8230   -7.7682  -34.4014 C   0  0  0  0  0  0  0  0  0  0  0  0
  -19.5548   -5.6611  -30.3500 C   0  0  0  0  0  0  0  0  0  0  0  0
  -22.7025   -3.5817  -30.7274 C   0  0  0  0  0  0  0  0  0  0  0  0
  -20.9476   -5.0732  -30.1364 C   0  0  2  0  0  0  0  0  0  0  0  0
  -22.4817   -3.4006  -29.2092 C   0  0  2  0  0  0  0  0  0  0  0  0
  -20.7278   -5.6559  -35.3955 C   0  0  1  0  0  0  0  0  0  0  0  0
  -19.9791   -5.5774  -32.8959 C   0  0  1  0  0  0  0  0  0  0  0  0
  -20.3804   -6.1176  -36.8369 C   0  0  1  0  0  0  0  0  0  0  0  0
  -20.4269   -7.6668  -36.8973 C   0  0  2  0  0  0  0  0  0  0  0  0
  -19.5040   -6.4340  -31.6837 C   0  0  2  0  0  0  0  0  0  0  0  0
  -19.7215   -6.2224  -34.3352 C   0  0  1  0  0  0  0  0  0  0  0  0
  -21.3845   -4.8761  -32.6791 C   0  0  1  0  0  0  0  0  0  0  0  0
  -21.3424   -4.0937  -31.2775 C   0  0  1  0  0  0  0  0  0  0  0  0
  -15.2103   -6.3711  -25.4342 C   0  0  0  0  0  0  0  0  0  0  0  0
  -15.9442   -3.9543  -25.3900 C   0  0  0  0  0  0  0  0  0  0  0  0
  -22.8905   -0.1528  -27.7026 C   0  0  0  0  0  0  0  0  0  0  0  0
  -21.3117   -5.5124  -37.8955 C   0  0  0  0  0  0  0  0  0  0  0  0
  -18.2434   -5.8422  -34.6879 C   0  0  0  0  0  0  0  0  0  0  0  0
  -22.5370   -5.9271  -32.6698 C   0  0  0  0  0  0  0  0  0  0  0  0
  -20.3655   -2.8636  -31.3220 C   0  0  0  0  0  0  0  0  0  0  0  0
  -18.8316   -5.0087  -26.0740 C   0  0  0  0  0  0  0  0  0  0  0  0
  -19.3720   -5.1001  -27.5077 C   0  0  0  0  0  0  0  0  0  0  0  0
  -22.5955   -3.4890  -24.5865 C   0  0  1  0  0  0  0  0  0  0  0  0
  -21.6148   -2.6920  -22.5238 N   0  0  0  0  0  0  0  0  0  0  0  0
  -22.0572   -4.1106  -25.7743 N   0  0  0  0  0  0  0  0  0  0  0  0
  -20.6796   -2.3517  -26.4068 O   0  0  0  0  0  0  0  0  0  0  0  0
  -20.9786   -4.7585  -23.2992 O   0  0  0  0  0  0  0  0  0  0  0  0
  -24.4231   -1.4101  -29.0691 O   0  0  0  0  0  0  0  0  0  0  0  0
  -21.7667   -8.1410  -36.7409 O   0  0  0  0  0  0  0  0  0  0  0  0
  -20.2948   -7.6122  -31.5542 O   0  0  0  0  0  0  0  0  0  0  0  0
  -22.2041   -2.0369  -28.9273 O   0  0  0  0  0  0  0  0  0  0  0  0
  -27.5352   -5.3685  -23.5373 H   0  0  0  0  0  0  0  0  0  0  0  0
  -26.7024   -5.3058  -25.8734 H   0  0  0  0  0  0  0  0  0  0  0  0
  -26.0932   -4.5655  -21.6844 H   0  0  0  0  0  0  0  0  0  0  0  0
  -24.4362   -4.4447  -26.3605 H   0  0  0  0  0  0  0  0  0  0  0  0
  -23.8257   -3.7026  -22.1610 H   0  0  0  0  0  0  0  0  0  0  0  0
  -17.7339   -6.8977  -25.9905 H   0  0  0  0  0  0  0  0  0  0  0  0
  -21.5393   -3.7173  -35.9835 H   0  0  0  0  0  0  0  0  0  0  0  0
  -19.9795   -3.6290  -35.1997 H   0  0  0  0  0  0  0  0  0  0  0  0
  -18.5217   -8.2505  -36.0693 H   0  0  0  0  0  0  0  0  0  0  0  0
  -19.8044   -9.4118  -35.7841 H   0  0  0  0  0  0  0  0  0  0  0  0
  -21.4262   -2.8464  -33.5918 H   0  0  0  0  0  0  0  0  0  0  0  0
  -22.7450   -3.8544  -34.0601 H   0  0  0  0  0  0  0  0  0  0  0  0
  -20.8143   -8.0919  -34.0645 H   0  0  0  0  0  0  0  0  0  0  0  0
  -19.0915   -8.2339  -33.7308 H   0  0  0  0  0  0  0  0  0  0  0  0
  -18.7909   -4.8757  -30.3432 H   0  0  0  0  0  0  0  0  0  0  0  0
  -19.3188   -6.3450  -29.5256 H   0  0  0  0  0  0  0  0  0  0  0  0
  -23.4912   -4.3285  -30.8634 H   0  0  0  0  0  0  0  0  0  0  0  0
  -23.0276   -2.6596  -31.2210 H   0  0  0  0  0  0  0  0  0  0  0  0
  -21.6442   -5.9202  -30.1035 H   0  0  0  0  0  0  0  0  0  0  0  0
  -23.3741   -3.7037  -28.6542 H   0  0  0  0  0  0  0  0  0  0  0  0
  -21.7112   -6.1016  -35.2174 H   0  0  0  0  0  0  0  0  0  0  0  0
  -19.2775   -4.7355  -32.8816 H   0  0  0  0  0  0  0  0  0  0  0  0
  -19.3688   -5.7893  -37.0981 H   0  0  0  0  0  0  0  0  0  0  0  0
  -20.0765   -8.0134  -37.8770 H   0  0  0  0  0  0  0  0  0  0  0  0
  -18.4705   -6.7585  -31.8497 H   0  0  0  0  0  0  0  0  0  0  0  0
  -14.7214   -6.5405  -26.3993 H   0  0  0  0  0  0  0  0  0  0  0  0
  -14.4459   -6.0212  -24.7324 H   0  0  0  0  0  0  0  0  0  0  0  0
  -15.5881   -7.3292  -25.0622 H   0  0  0  0  0  0  0  0  0  0  0  0
  -16.0243   -3.6141  -24.3561 H   0  0  0  0  0  0  0  0  0  0  0  0
  -16.5779   -3.3021  -26.0002 H   0  0  0  0  0  0  0  0  0  0  0  0
  -14.9033   -3.8074  -25.6978 H   0  0  0  0  0  0  0  0  0  0  0  0
  -23.0133   -0.4831  -26.6682 H   0  0  0  0  0  0  0  0  0  0  0  0
  -23.4949    0.7367  -27.8976 H   0  0  0  0  0  0  0  0  0  0  0  0
  -21.8386    0.0992  -27.8656 H   0  0  0  0  0  0  0  0  0  0  0  0
  -22.3365   -5.8061  -37.6865 H   0  0  0  0  0  0  0  0  0  0  0  0
  -21.0248   -5.8736  -38.8790 H   0  0  0  0  0  0  0  0  0  0  0  0
  -21.2329   -4.4291  -37.8700 H   0  0  0  0  0  0  0  0  0  0  0  0
  -18.1593   -4.7702  -34.6455 H   0  0  0  0  0  0  0  0  0  0  0  0
  -18.0364   -6.2069  -35.6790 H   0  0  0  0  0  0  0  0  0  0  0  0
  -17.6004   -6.3092  -33.9622 H   0  0  0  0  0  0  0  0  0  0  0  0
  -22.3548   -6.6193  -31.8635 H   0  0  0  0  0  0  0  0  0  0  0  0
  -22.5340   -6.4381  -33.6192 H   0  0  0  0  0  0  0  0  0  0  0  0
  -23.4681   -5.4042  -32.5208 H   0  0  0  0  0  0  0  0  0  0  0  0
  -19.4223   -3.2112  -31.7018 H   0  0  0  0  0  0  0  0  0  0  0  0
  -20.2680   -2.4897  -30.3193 H   0  0  0  0  0  0  0  0  0  0  0  0
  -20.8002   -2.1269  -31.9725 H   0  0  0  0  0  0  0  0  0  0  0  0
  -19.6180   -5.2646  -25.3586 H   0  0  0  0  0  0  0  0  0  0  0  0
  -18.5767   -3.9612  -25.8675 H   0  0  0  0  0  0  0  0  0  0  0  0
  -18.6046   -4.7297  -28.1994 H   0  0  0  0  0  0  0  0  0  0  0  0
  -19.5234   -6.1555  -27.7708 H   0  0  0  0  0  0  0  0  0  0  0  0
  -22.6382   -2.4099  -24.7784 H   0  0  0  0  0  0  0  0  0  0  0  0
  -22.1795   -1.8561  -22.6366 H   0  0  0  0  0  0  0  0  0  0  0  0
  -21.0219   -2.7326  -21.7015 H   0  0  0  0  0  0  0  0  0  0  0  0
  -22.3669   -5.0460  -26.0202 H   0  0  0  0  0  0  0  0  0  0  0  0
  -21.7289   -9.1025  -36.8501 H   0  0  0  0  0  0  0  0  0  0  0  0
  -19.9051   -8.1288  -30.8318 H   0  0  0  0  0  0  0  0  0  0  0  0
  1  2  2  0  0  0  0
  1  3  1  0  0  0  0
  2  4  1  0  0  0  0
  3  5  2  0  0  0  0
  4  6  2  0  0  0  0
  5  6  1  0  0  0  0
  6 39  1  0  0  0  0
  7  9  2  0  0  0  0
  7 20  1  0  0  0  0
  7 21  1  0  0  0  0
  8 10  2  0  0  0  0
  8 37  1  0  0  0  0
  9 11  1  0  0  0  0
  9 38  1  0  0  0  0
 10 30  1  0  0  0  0
 10 31  1  0  0  0  0
 11 41  1  0  0  0  0
 11 42  2  0  0  0  0
 12 39  1  0  0  0  0
 12 40  1  0  0  0  0
 12 43  2  0  0  0  0
 13 32  1  0  0  0  0
 13 44  2  0  0  0  0
 13 47  1  0  0  0  0
 14 16  1  0  0  0  0
 14 22  1  0  0  0  0
 15 17  1  0  0  0  0
 15 25  1  0  0  0  0
 16 28  1  0  0  0  0
 17 27  1  0  0  0  0
 18 20  1  0  0  0  0
 18 26  1  0  0  0  0
 19 21  1  0  0  0  0
 19 29  1  0  0  0  0
 20 29  1  0  0  0  0
 21 47  1  0  0  0  0
 22 24  1  0  0  0  0
 22 27  1  0  0  0  0
 23 26  1  0  0  0  0
 23 27  1  0  0  0  0
 23 28  1  0  0  0  0
 24 25  1  0  0  0  0
 24 33  1  0  0  0  0
 25 45  1  0  0  0  0
 26 46  1  0  0  0  0
 27 34  1  0  0  0  0
 28 29  1  0  0  0  0
 28 35  1  0  0  0  0
 29 36  1  0  0  0  0
 37 38  1  0  0  0  0
 39 41  1  0  0  0  0
  1 48  1  0  0  0  0
  2 49  1  0  0  0  0
  3 50  1  0  0  0  0
  4 51  1  0  0  0  0
  5 52  1  0  0  0  0
  8 53  1  0  0  0  0
 14 54  1  0  0  0  0
 14 55  1  0  0  0  0
 15 56  1  0  0  0  0
 15 57  1  0  0  0  0
 16 58  1  0  0  0  0
 16 59  1  0  0  0  0
 17 60  1  0  0  0  0
 17 61  1  0  0  0  0
 18 62  1  0  0  0  0
 18 63  1  0  0  0  0
 19 64  1  0  0  0  0
 19 65  1  0  0  0  0
 20 66  1  0  0  0  0
 21 67  1  0  0  0  0
 22 68  1  0  0  0  0
 23 69  1  0  0  0  0
 24 70  1  0  0  0  0
 25 71  1  0  0  0  0
 26 72  1  0  0  0  0
 30 73  1  0  0  0  0
 30 74  1  0  0  0  0
 30 75  1  0  0  0  0
 31 76  1  0  0  0  0
 31 77  1  0  0  0  0
 31 78  1  0  0  0  0
 32 79  1  0  0  0  0
 32 80  1  0  0  0  0
 32 81  1  0  0  0  0
 33 82  1  0  0  0  0
 33 83  1  0  0  0  0
 33 84  1  0  0  0  0
 34 85  1  0  0  0  0
 34 86  1  0  0  0  0
 34 87  1  0  0  0  0
 35 88  1  0  0  0  0
 35 89  1  0  0  0  0
 35 90  1  0  0  0  0
 36 91  1  0  0  0  0
 36 92  1  0  0  0  0
 36 93  1  0  0  0  0
 37 94  1  0  0  0  0
 37 95  1  0  0  0  0
 38 96  1  0  0  0  0
 38 97  1  0  0  0  0
 39 98  1  0  0  0  0
 40 99  1  0  0  0  0
 40100  1  0  0  0  0
 41101  1  0  0  0  0
 45102  1  0  0  0  0
 46103  1  0  0  0  0
M  END
> <SMILES>
C[C@@H]1[C@H](O)CC[C@@]2(C)[C@H]1CC[C@@]1(C)[C@H]2[C@H](O)C[C@H]2/C(=C(\CCC=C(C)C)C(=O)N[C@H](C(=O)N)c3ccccc3)[C@H](C[C@@]21C)OC(=O)C

> <FORMATTED_ID>
H3D-005467

> <MOLFORMULA>
C39H56N2O6

> <Exact Mass>
648.41

> <XLogP>
6.01

> <TPSA_NOPS>
138.9

> <s_m_source_file>
ligprep_h3d.sdf

> <i_m_source_file_index>
2378

> <i_lp_mmshare_version>
55123

> <i_f3d_flags>
0

> <s_epik_input>
W0NIMl0xW0NIMl1bQ0BASF0oW09IXSlbQ0BASF0oW0NIM10pW0NAQEhdKFtDQF0xMltDSDNdKVtDSDJdW0NIMl1bQ0BAXTMoW0NIM10pW0NASF0yW0NASF0oW09IXSlbQ0gyXVtDQEBIXTRbQ0BdMyhbQ0gzXSlbQ0gyXVtDQEhdKE9DKD1PKVtDSDNdKUNcND1DKFxbQ0gyXVtDSDJdW0NIXT1DKFtDSDNdKVtDSDNdKUMoPU8pW05IXVtDQEhdKEMoPU8pW05IMl0pYzVbY0hdW2NIXVtjSF1bY0hdW2NIXTU=

> <s_epik_cmdline>
J2VwaWtfcHl0aG9uJywgJy1waHQnLCAnMC41JywgJy1waCcsICc3LjUnLCAnLXRuJywgJzgnLCAnLW1hJywgJzUwMCcsICctaW1hZScsICc8aW5maWxlLm1hZT4nLCAnLW9tYWUnLCAnPG91dGZpbGUubWFlPic=

> <r_lp_tautomer_probability>
1

> <r_epik_Ionization_Penalty>
2.9462e-06

> <r_epik_Ionization_Penalty_Charging>
0

> <r_epik_Ionization_Penalty_Neutral>
2.9462e-06

> <r_epik_State_Penalty>
-0

> <r_epik_Charging_Adjusted_Penalty>
0

> <i_epik_Tot_Q>
0

> <i_epik_Tot_abs_Q>
0

> <s_epik_Chemistry_Notes>
This compound has an ester and may undergo hydrolysis at high or low pH.

> <s_lp_Force_Field>
S-OPLS

> <r_lp_Energy>
91.0769

> <b_lp_Chiralities_Consistent>
1

> <s_lp_Variant>
ligprep_h3d.sdf:2378-1

> <ROCS_ShapeQuery>
_7L13

> <ROCS_TanimotoCombo>
0.680 

> <ROCS_ShapeTanimoto>
0.604 

> <ROCS_ColorTanimoto>
0.076 

> <ROCS_RefTversky>
0.835 

> <ROCS_RefColorTversky>
0.189 

> <ROCS_RefTverskyCombo>
1.024 

> <ROCS_FitTversky>
0.686 

> <ROCS_FitColorTversky>
0.113 

> <ROCS_FitTverskyCombo>
0.798 

> <ROCS_ColorScore>
-1.763

> <ROCS_Overlap>
1403.891

> <ROCS_Rank>
16                  

$$$$
ligprep_h3d.sdf:2366_682
  -OEChem-08212117123D

100104  0     1  0  0  0  0  0999 V2000
  -23.6307   -3.1187  -22.5582 C   0  0  0  0  0  0  0  0  0  0  0  0
  -22.9135   -3.4613  -23.7044 C   0  0  0  0  0  0  0  0  0  0  0  0
  -24.8895   -3.6749  -22.3307 C   0  0  0  0  0  0  0  0  0  0  0  0
  -24.7141   -4.9164  -24.3959 C   0  0  0  0  0  0  0  0  0  0  0  0
  -23.4552   -4.3602  -24.6233 C   0  0  0  0  0  0  0  0  0  0  0  0
  -25.4312   -4.5737  -23.2496 C   0  0  0  0  0  0  0  0  0  0  0  0
  -21.8194   -4.4784  -28.8426 C   0  0  0  0  0  0  0  0  0  0  0  0
  -18.0770   -6.0437  -25.8768 C   0  0  0  0  0  0  0  0  0  0  0  0
  -21.2187   -4.6248  -27.6558 C   0  0  0  0  0  0  0  0  0  0  0  0
  -16.8880   -5.5063  -25.5440 C   0  0  0  0  0  0  0  0  0  0  0  0
  -21.7930   -3.9323  -26.4578 C   0  0  0  0  0  0  0  0  0  0  0  0
  -23.9268   -1.5529  -28.3306 C   0  0  0  0  0  0  0  0  0  0  0  0
  -21.1989   -3.6007  -35.0514 C   0  0  0  0  0  0  0  0  0  0  0  0
  -19.6724   -7.6334  -36.0947 C   0  0  0  0  0  0  0  0  0  0  0  0
  -21.9922   -3.4983  -33.7371 C   0  0  0  0  0  0  0  0  0  0  0  0
  -19.9923   -7.2408  -34.6416 C   0  0  0  0  0  0  0  0  0  0  0  0
  -19.9709   -5.6157  -30.3655 C   0  0  0  0  0  0  0  0  0  0  0  0
  -23.1709   -3.6018  -30.6452 C   0  0  0  0  0  0  0  0  0  0  0  0
  -21.3914   -5.0989  -30.1501 C   0  0  2  0  0  0  0  0  0  0  0  0
  -23.0214   -3.5933  -29.1077 C   0  0  2  0  0  0  0  0  0  0  0  0
  -20.9278   -5.0546  -35.4255 C   0  0  1  0  0  0  0  0  0  0  0  0
  -20.2892   -5.2471  -32.9015 C   0  0  1  0  0  0  0  0  0  0  0  0
  -20.5033   -5.3337  -36.8929 C   0  0  1  0  0  0  0  0  0  0  0  0
  -20.4927   -6.8658  -37.1343 C   0  0  2  0  0  0  0  0  0  0  0  0
  -19.8363   -6.2252  -31.7759 C   0  0  2  0  0  0  0  0  0  0  0  0
  -19.9481   -5.7110  -34.3923 C   0  0  1  0  0  0  0  0  0  0  0  0
  -21.7264   -4.6185  -32.6704 C   0  0  1  0  0  0  0  0  0  0  0  0
  -21.7715   -4.0048  -31.1872 C   0  0  1  0  0  0  0  0  0  0  0  0
  -15.5941   -6.2589  -25.4146 C   0  0  0  0  0  0  0  0  0  0  0  0
  -16.7730   -4.0301  -25.2688 C   0  0  0  0  0  0  0  0  0  0  0  0
  -23.6079   -0.5580  -27.2560 C   0  0  0  0  0  0  0  0  0  0  0  0
  -21.4095   -4.6368  -37.9164 C   0  0  0  0  0  0  0  0  0  0  0  0
  -18.4707   -5.2480  -34.6298 C   0  0  0  0  0  0  0  0  0  0  0  0
  -22.8406   -5.6975  -32.8362 C   0  0  0  0  0  0  0  0  0  0  0  0
  -20.8374   -2.7492  -31.0438 C   0  0  0  0  0  0  0  0  0  0  0  0
  -27.3379   -4.7225  -21.8360 C   0  0  0  0  0  0  0  0  0  0  0  0
  -19.4040   -5.3503  -26.0232 C   0  0  0  0  0  0  0  0  0  0  0  0
  -19.9305   -5.3854  -27.4647 C   0  0  0  0  0  0  0  0  0  0  0  0
  -22.7270   -4.7078  -25.7863 N   0  0  0  0  0  0  0  0  0  0  0  0
  -21.3740   -2.8214  -26.1495 O   0  0  0  0  0  0  0  0  0  0  0  0
  -25.0358   -1.6920  -28.8283 O   0  0  0  0  0  0  0  0  0  0  0  0
  -21.8204   -7.3950  -37.0960 O   0  0  0  0  0  0  0  0  0  0  0  0
  -20.5900   -7.4336  -31.8203 O   0  0  0  0  0  0  0  0  0  0  0  0
  -26.6596   -5.1165  -23.0278 O   0  0  0  0  0  0  0  0  0  0  0  0
  -22.8042   -2.2642  -28.6574 O   0  0  0  0  0  0  0  0  0  0  0  0
  -23.2082   -2.4196  -21.8425 H   0  0  0  0  0  0  0  0  0  0  0  0
  -21.9337   -3.0213  -23.8716 H   0  0  0  0  0  0  0  0  0  0  0  0
  -25.4424   -3.4043  -21.4355 H   0  0  0  0  0  0  0  0  0  0  0  0
  -25.1405   -5.6181  -25.1093 H   0  0  0  0  0  0  0  0  0  0  0  0
  -18.1129   -7.1138  -26.0796 H   0  0  0  0  0  0  0  0  0  0  0  0
  -21.7812   -3.0857  -35.8221 H   0  0  0  0  0  0  0  0  0  0  0  0
  -20.2602   -3.0431  -34.9619 H   0  0  0  0  0  0  0  0  0  0  0  0
  -18.6051   -7.4851  -36.2920 H   0  0  0  0  0  0  0  0  0  0  0  0
  -19.8571   -8.7097  -36.2028 H   0  0  0  0  0  0  0  0  0  0  0  0
  -21.8006   -2.4980  -33.3431 H   0  0  0  0  0  0  0  0  0  0  0  0
  -23.0620   -3.4833  -33.9854 H   0  0  0  0  0  0  0  0  0  0  0  0
  -20.9850   -7.6313  -34.3907 H   0  0  0  0  0  0  0  0  0  0  0  0
  -19.2741   -7.7597  -33.9962 H   0  0  0  0  0  0  0  0  0  0  0  0
  -19.2361   -4.8140  -30.2325 H   0  0  0  0  0  0  0  0  0  0  0  0
  -19.7463   -6.3842  -29.6158 H   0  0  0  0  0  0  0  0  0  0  0  0
  -23.9263   -4.3508  -30.9031 H   0  0  0  0  0  0  0  0  0  0  0  0
  -23.5069   -2.6384  -31.0433 H   0  0  0  0  0  0  0  0  0  0  0  0
  -22.0585   -5.9645  -30.2478 H   0  0  0  0  0  0  0  0  0  0  0  0
  -23.9254   -3.9859  -28.6334 H   0  0  0  0  0  0  0  0  0  0  0  0
  -21.9015   -5.5474  -35.3459 H   0  0  0  0  0  0  0  0  0  0  0  0
  -19.6189   -4.3920  -32.7574 H   0  0  0  0  0  0  0  0  0  0  0  0
  -19.4937   -4.9469  -37.0672 H   0  0  0  0  0  0  0  0  0  0  0  0
  -20.0890   -7.0845  -38.1302 H   0  0  0  0  0  0  0  0  0  0  0  0
  -18.7859   -6.4969  -31.9302 H   0  0  0  0  0  0  0  0  0  0  0  0
  -15.0713   -6.2735  -26.3767 H   0  0  0  0  0  0  0  0  0  0  0  0
  -14.9098   -5.8351  -24.6776 H   0  0  0  0  0  0  0  0  0  0  0  0
  -15.7907   -7.2940  -25.1158 H   0  0  0  0  0  0  0  0  0  0  0  0
  -16.9454   -3.8283  -24.2065 H   0  0  0  0  0  0  0  0  0  0  0  0
  -15.7855   -3.6322  -25.5256 H   0  0  0  0  0  0  0  0  0  0  0  0
  -17.5155   -3.4768  -25.8533 H   0  0  0  0  0  0  0  0  0  0  0  0
  -23.7629   -1.0108  -26.2736 H   0  0  0  0  0  0  0  0  0  0  0  0
  -24.2344    0.3296  -27.3746 H   0  0  0  0  0  0  0  0  0  0  0  0
  -22.5595   -0.2572  -27.3398 H   0  0  0  0  0  0  0  0  0  0  0  0
  -22.4313   -4.9835  -37.7905 H   0  0  0  0  0  0  0  0  0  0  0  0
  -21.0685   -4.8715  -38.9208 H   0  0  0  0  0  0  0  0  0  0  0  0
  -21.3700   -3.5621  -37.7621 H   0  0  0  0  0  0  0  0  0  0  0  0
  -18.4262   -4.1863  -34.4598 H   0  0  0  0  0  0  0  0  0  0  0  0
  -18.2091   -5.4877  -35.6457 H   0  0  0  0  0  0  0  0  0  0  0  0
  -17.8431   -5.7773  -33.9340 H   0  0  0  0  0  0  0  0  0  0  0  0
  -22.6686   -6.4735  -32.1079 H   0  0  0  0  0  0  0  0  0  0  0  0
  -22.7792   -6.0934  -33.8372 H   0  0  0  0  0  0  0  0  0  0  0  0
  -23.7949   -5.2238  -32.6710 H   0  0  0  0  0  0  0  0  0  0  0  0
  -19.8673   -3.0215  -31.4172 H   0  0  0  0  0  0  0  0  0  0  0  0
  -20.7959   -2.4926  -30.0012 H   0  0  0  0  0  0  0  0  0  0  0  0
  -21.2698   -1.9547  -31.6241 H   0  0  0  0  0  0  0  0  0  0  0  0
  -28.3051   -5.2281  -21.7822 H   0  0  0  0  0  0  0  0  0  0  0  0
  -27.4808   -3.6389  -21.8383 H   0  0  0  0  0  0  0  0  0  0  0  0
  -26.7324   -5.0063  -20.9720 H   0  0  0  0  0  0  0  0  0  0  0  0
  -20.1606   -5.7440  -25.3391 H   0  0  0  0  0  0  0  0  0  0  0  0
  -19.2616   -4.3014  -25.7337 H   0  0  0  0  0  0  0  0  0  0  0  0
  -20.0564   -6.4301  -27.7789 H   0  0  0  0  0  0  0  0  0  0  0  0
  -19.1661   -4.9653  -28.1306 H   0  0  0  0  0  0  0  0  0  0  0  0
  -22.9069   -5.6454  -26.1395 H   0  0  0  0  0  0  0  0  0  0  0  0
  -21.7443   -8.3355  -37.3139 H   0  0  0  0  0  0  0  0  0  0  0  0
  -20.2134   -8.0194  -31.1453 H   0  0  0  0  0  0  0  0  0  0  0  0
  1  2  2  0  0  0  0
  1  3  1  0  0  0  0
  2  5  1  0  0  0  0
  3  6  2  0  0  0  0
  4  5  2  0  0  0  0
  4  6  1  0  0  0  0
  5 39  1  0  0  0  0
  6 44  1  0  0  0  0
  7  9  2  0  0  0  0
  7 19  1  0  0  0  0
  7 20  1  0  0  0  0
  8 10  2  0  0  0  0
  8 37  1  0  0  0  0
  9 11  1  0  0  0  0
  9 38  1  0  0  0  0
 10 29  1  0  0  0  0
 10 30  1  0  0  0  0
 11 39  1  0  0  0  0
 11 40  2  0  0  0  0
 12 31  1  0  0  0  0
 12 41  2  0  0  0  0
 12 45  1  0  0  0  0
 13 15  1  0  0  0  0
 13 21  1  0  0  0  0
 14 16  1  0  0  0  0
 14 24  1  0  0  0  0
 15 27  1  0  0  0  0
 16 26  1  0  0  0  0
 17 19  1  0  0  0  0
 17 25  1  0  0  0  0
 18 20  1  0  0  0  0
 18 28  1  0  0  0  0
 19 28  1  0  0  0  0
 20 45  1  0  0  0  0
 21 23  1  0  0  0  0
 21 26  1  0  0  0  0
 22 25  1  0  0  0  0
 22 26  1  0  0  0  0
 22 27  1  0  0  0  0
 23 24  1  0  0  0  0
 23 32  1  0  0  0  0
 24 42  1  0  0  0  0
 25 43  1  0  0  0  0
 26 33  1  0  0  0  0
 27 28  1  0  0  0  0
 27 34  1  0  0  0  0
 28 35  1  0  0  0  0
 36 44  1  0  0  0  0
 37 38  1  0  0  0  0
  1 46  1  0  0  0  0
  2 47  1  0  0  0  0
  3 48  1  0  0  0  0
  4 49  1  0  0  0  0
  8 50  1  0  0  0  0
 13 51  1  0  0  0  0
 13 52  1  0  0  0  0
 14 53  1  0  0  0  0
 14 54  1  0  0  0  0
 15 55  1  0  0  0  0
 15 56  1  0  0  0  0
 16 57  1  0  0  0  0
 16 58  1  0  0  0  0
 17 59  1  0  0  0  0
 17 60  1  0  0  0  0
 18 61  1  0  0  0  0
 18 62  1  0  0  0  0
 19 63  1  0  0  0  0
 20 64  1  0  0  0  0
 21 65  1  0  0  0  0
 22 66  1  0  0  0  0
 23 67  1  0  0  0  0
 24 68  1  0  0  0  0
 25 69  1  0  0  0  0
 29 70  1  0  0  0  0
 29 71  1  0  0  0  0
 29 72  1  0  0  0  0
 30 73  1  0  0  0  0
 30 74  1  0  0  0  0
 30 75  1  0  0  0  0
 31 76  1  0  0  0  0
 31 77  1  0  0  0  0
 31 78  1  0  0  0  0
 32 79  1  0  0  0  0
 32 80  1  0  0  0  0
 32 81  1  0  0  0  0
 33 82  1  0  0  0  0
 33 83  1  0  0  0  0
 33 84  1  0  0  0  0
 34 85  1  0  0  0  0
 34 86  1  0  0  0  0
 34 87  1  0  0  0  0
 35 88  1  0  0  0  0
 35 89  1  0  0  0  0
 35 90  1  0  0  0  0
 36 91  1  0  0  0  0
 36 92  1  0  0  0  0
 36 93  1  0  0  0  0
 37 94  1  0  0  0  0
 37 95  1  0  0  0  0
 38 96  1  0  0  0  0
 38 97  1  0  0  0  0
 39 98  1  0  0  0  0
 42 99  1  0  0  0  0
 43100  1  0  0  0  0
M  END
> <SMILES>
COc1cccc(c1)NC(=O)/C(=C/1\[C@H](C[C@@]2(C)[C@H]1C[C@@H](O)[C@H]1[C@@]3(C)CC[C@@H](O)[C@@H](C)[C@@H]3CC[C@@]12C)OC(=O)C)CCC=C(C)C

> <FORMATTED_ID>
H3D-005455

> <MOLFORMULA>
C38H55NO6

> <Exact Mass>
621.4

> <XLogP>
6.89

> <TPSA_NOPS>
105.1

> <s_m_source_file>
ligprep_h3d.sdf

> <i_m_source_file_index>
2366

> <i_lp_mmshare_version>
55123

> <i_f3d_flags>
0

> <s_epik_input>
W0NIM11PYzFbY0hdW2NIXVtjSF1jKFtjSF0xKVtOSF1DKD1PKS9DKFtDSDJdW0NIMl1bQ0hdPUMoW0NIM10pW0NIM10pPUMoXFtDQEhdKFtDSDJdMilPQyg9TylbQ0gzXSlbQ0BASF0oW0NAXTIzW0NIM10pW0NIMl1bQ0BASF0oW09IXSlbQ0BIXTRbQ0BdNShbQ0gzXSlbQ0BIXShbQ0BIXShbQ0gzXSlbQ0BIXShbT0hdKVtDSDJdW0NIMl01KVtDSDJdW0NIMl1bQ0BdMzRbQ0gzXQ==

> <s_epik_cmdline>
J2VwaWtfcHl0aG9uJywgJy1waHQnLCAnMC41JywgJy1waCcsICc3LjUnLCAnLXRuJywgJzgnLCAnLW1hJywgJzUwMCcsICctaW1hZScsICc8aW5maWxlLm1hZT4nLCAnLW9tYWUnLCAnPG91dGZpbGUubWFlPic=

> <r_lp_tautomer_probability>
1

> <r_epik_Ionization_Penalty>
0.000462882

> <r_epik_Ionization_Penalty_Charging>
0

> <r_epik_Ionization_Penalty_Neutral>
0.000462882

> <r_epik_State_Penalty>
-0

> <r_epik_Charging_Adjusted_Penalty>
0

> <i_epik_Tot_Q>
0

> <i_epik_Tot_abs_Q>
0

> <s_epik_Chemistry_Notes>
This compound has an ester and may undergo hydrolysis at high or low pH.

> <s_lp_Force_Field>
S-OPLS

> <r_lp_Energy>
91.6704

> <b_lp_Chiralities_Consistent>
1

> <s_lp_Variant>
ligprep_h3d.sdf:2366-1

> <ROCS_ShapeQuery>
_7L13

> <ROCS_TanimotoCombo>
0.720 

> <ROCS_ShapeTanimoto>
0.622 

> <ROCS_ColorTanimoto>
0.098 

> <ROCS_RefTversky>
0.833 

> <ROCS_RefColorTversky>
0.231 

> <ROCS_RefTverskyCombo>
1.064 

> <ROCS_FitTversky>
0.711 

> <ROCS_FitColorTversky>
0.146 

> <ROCS_FitTverskyCombo>
0.857 

> <ROCS_ColorScore>
-2.149

> <ROCS_Overlap>
1396.624

> <ROCS_Rank>
17                  

$$$$
ligprep_h3d.sdf:5139_1555
  -OEChem-08212117123D

 68 73  0     0  0  0  0  0  0999 V2000
  -20.3240   -4.5560  -33.1561 C   0  0  0  0  0  0  0  0  0  0  0  0
  -21.4471   -6.6871  -33.3415 C   0  0  0  0  0  0  0  0  0  0  0  0
  -19.4549   -4.9247  -34.1828 C   0  0  0  0  0  0  0  0  0  0  0  0
  -20.5780   -7.0558  -34.3683 C   0  0  0  0  0  0  0  0  0  0  0  0
  -23.6488   -3.9508  -27.7159 C   0  0  0  0  0  0  0  0  0  0  0  0
  -20.9878   -4.5176  -28.4672 C   0  0  0  0  0  0  0  0  0  0  0  0
  -14.8142   -4.8474  -25.8390 C   0  0  0  0  0  0  0  0  0  0  0  0
  -15.3035   -6.1257  -25.9692 C   0  0  0  0  0  0  0  0  0  0  0  0
  -22.6958   -4.2730  -26.7574 C   0  0  0  0  0  0  0  0  0  0  0  0
  -21.3201   -5.4372  -32.7353 C   0  0  0  0  0  0  0  0  0  0  0  0
  -19.5819   -6.1746  -34.7890 C   0  0  0  0  0  0  0  0  0  0  0  0
  -21.3816   -4.5521  -27.1374 C   0  0  0  0  0  0  0  0  0  0  0  0
  -23.2666   -3.9123  -29.0583 C   0  0  0  0  0  0  0  0  0  0  0  0
  -21.9449   -4.1939  -29.4309 C   0  0  0  0  0  0  0  0  0  0  0  0
  -16.9402   -4.6312  -25.8823 C   0  0  0  0  0  0  0  0  0  0  0  0
  -18.3117   -4.2414  -25.8880 C   0  0  0  0  0  0  0  0  0  0  0  0
  -18.9421   -6.5843  -26.1174 C   0  0  0  0  0  0  0  0  0  0  0  0
  -17.6531   -6.9598  -26.1135 C   0  0  0  0  0  0  0  0  0  0  0  0
  -19.2952   -5.1651  -26.0004 C   0  0  0  0  0  0  0  0  0  0  0  0
  -23.8956   -5.4734  -24.8912 C   0  0  0  0  0  0  0  0  0  0  0  0
  -23.3125   -3.0267  -24.6524 C   0  0  0  0  0  0  0  0  0  0  0  0
  -21.4376   -4.7631  -24.8054 C   0  0  0  0  0  0  0  0  0  0  0  0
  -24.1715   -5.5444  -23.3935 C   0  0  0  0  0  0  0  0  0  0  0  0
  -23.5924   -3.1153  -23.1566 C   0  0  0  0  0  0  0  0  0  0  0  0
  -22.8779   -4.3758  -25.2562 C   0  0  0  0  0  0  0  0  0  0  0  0
  -25.0258   -4.2350  -21.4528 C   0  0  0  0  0  0  0  0  0  0  0  0
  -24.3394   -2.2163  -30.3344 C   0  0  0  0  0  0  0  0  0  0  0  0
  -22.2557   -5.0412  -31.6311 C   0  0  0  0  0  0  0  0  0  0  0  0
  -18.6532   -6.5675  -35.8879 C   0  0  0  0  0  0  0  0  0  0  0  0
  -15.8305   -3.9275  -25.7859 N   0  0  0  0  0  0  0  0  0  0  0  0
  -16.6674   -5.9884  -25.9969 N   0  0  0  0  0  0  0  0  0  0  0  0
  -20.6066   -4.8481  -26.0112 N   0  0  0  0  0  0  0  0  0  0  0  0
  -24.6194   -4.1906  -22.9004 N   0  3  0  0  0  0  0  0  0  0  0  0
  -24.1948   -3.5961  -30.0054 O   0  0  0  0  0  0  0  0  0  0  0  0
  -21.5795   -4.1535  -30.7442 O   0  0  0  0  0  0  0  0  0  0  0  0
  -17.7315   -5.6073  -36.1953 F   0  0  0  0  0  0  0  0  0  0  0  0
  -17.9219   -7.6875  -35.6115 F   0  0  0  0  0  0  0  0  0  0  0  0
  -19.3059   -6.8355  -37.0563 F   0  0  0  0  0  0  0  0  0  0  0  0
  -20.2175   -3.5803  -32.6893 H   0  0  0  0  0  0  0  0  0  0  0  0
  -22.2213   -7.3792  -33.0208 H   0  0  0  0  0  0  0  0  0  0  0  0
  -18.6830   -4.2310  -34.5051 H   0  0  0  0  0  0  0  0  0  0  0  0
  -20.6837   -8.0314  -34.8353 H   0  0  0  0  0  0  0  0  0  0  0  0
  -24.6730   -3.7323  -27.4296 H   0  0  0  0  0  0  0  0  0  0  0  0
  -19.9684   -4.7325  -28.7690 H   0  0  0  0  0  0  0  0  0  0  0  0
  -13.7794   -4.5432  -25.7809 H   0  0  0  0  0  0  0  0  0  0  0  0
  -14.8166   -7.0884  -26.0428 H   0  0  0  0  0  0  0  0  0  0  0  0
  -18.5461   -3.1850  -25.7994 H   0  0  0  0  0  0  0  0  0  0  0  0
  -19.7322   -7.3221  -26.2074 H   0  0  0  0  0  0  0  0  0  0  0  0
  -17.3423   -7.9940  -26.1977 H   0  0  0  0  0  0  0  0  0  0  0  0
  -23.5463   -6.4539  -25.2405 H   0  0  0  0  0  0  0  0  0  0  0  0
  -24.8465   -5.2932  -25.4105 H   0  0  0  0  0  0  0  0  0  0  0  0
  -24.2202   -2.6643  -25.1539 H   0  0  0  0  0  0  0  0  0  0  0  0
  -22.5471   -2.2603  -24.8314 H   0  0  0  0  0  0  0  0  0  0  0  0
  -21.0105   -4.0180  -24.1232 H   0  0  0  0  0  0  0  0  0  0  0  0
  -21.4199   -5.7282  -24.2845 H   0  0  0  0  0  0  0  0  0  0  0  0
  -24.9820   -6.2519  -23.1886 H   0  0  0  0  0  0  0  0  0  0  0  0
  -23.2861   -5.8330  -22.8177 H   0  0  0  0  0  0  0  0  0  0  0  0
  -22.6973   -3.3641  -22.5770 H   0  0  0  0  0  0  0  0  0  0  0  0
  -24.0090   -2.1712  -22.7903 H   0  0  0  0  0  0  0  0  0  0  0  0
  -24.1446   -4.5024  -20.8667 H   0  0  0  0  0  0  0  0  0  0  0  0
  -25.3941   -3.2446  -21.1786 H   0  0  0  0  0  0  0  0  0  0  0  0
  -25.8094   -4.9879  -21.3487 H   0  0  0  0  0  0  0  0  0  0  0  0
  -25.1102   -2.1025  -31.1006 H   0  0  0  0  0  0  0  0  0  0  0  0
  -23.3863   -1.8263  -30.7004 H   0  0  0  0  0  0  0  0  0  0  0  0
  -24.6358   -1.6664  -29.4381 H   0  0  0  0  0  0  0  0  0  0  0  0
  -23.1433   -4.5392  -32.0309 H   0  0  0  0  0  0  0  0  0  0  0  0
  -22.5904   -5.9217  -31.0721 H   0  0  0  0  0  0  0  0  0  0  0  0
  -25.4647   -3.9373  -23.4305 H   0  0  0  0  0  0  0  0  0  0  0  0
  1  3  1  0  0  0  0
  1 10  2  0  0  0  0
  2  4  2  0  0  0  0
  2 10  1  0  0  0  0
  3 11  2  0  0  0  0
  4 11  1  0  0  0  0
  5  9  1  0  0  0  0
  5 13  2  0  0  0  0
  6 12  1  0  0  0  0
  6 14  2  0  0  0  0
  7  8  2  0  0  0  0
  7 30  1  0  0  0  0
  8 31  1  0  0  0  0
  9 12  2  0  0  0  0
  9 25  1  0  0  0  0
 10 28  1  0  0  0  0
 11 29  1  0  0  0  0
 12 32  1  0  0  0  0
 13 14  1  0  0  0  0
 13 34  1  0  0  0  0
 14 35  1  0  0  0  0
 15 16  1  0  0  0  0
 15 30  2  0  0  0  0
 15 31  1  0  0  0  0
 16 19  2  0  0  0  0
 17 18  2  0  0  0  0
 17 19  1  0  0  0  0
 18 31  1  0  0  0  0
 19 32  1  0  0  0  0
 20 23  1  0  0  0  0
 20 25  1  0  0  0  0
 21 24  1  0  0  0  0
 21 25  1  0  0  0  0
 22 25  1  0  0  0  0
 22 32  1  0  0  0  0
 23 33  1  0  0  0  0
 24 33  1  0  0  0  0
 26 33  1  0  0  0  0
 27 34  1  0  0  0  0
 28 35  1  0  0  0  0
 29 36  1  0  0  0  0
 29 37  1  0  0  0  0
 29 38  1  0  0  0  0
  1 39  1  0  0  0  0
  2 40  1  0  0  0  0
  3 41  1  0  0  0  0
  4 42  1  0  0  0  0
  5 43  1  0  0  0  0
  6 44  1  0  0  0  0
  7 45  1  0  0  0  0
  8 46  1  0  0  0  0
 16 47  1  0  0  0  0
 17 48  1  0  0  0  0
 18 49  1  0  0  0  0
 20 50  1  0  0  0  0
 20 51  1  0  0  0  0
 21 52  1  0  0  0  0
 21 53  1  0  0  0  0
 22 54  1  0  0  0  0
 22 55  1  0  0  0  0
 23 56  1  0  0  0  0
 23 57  1  0  0  0  0
 24 58  1  0  0  0  0
 24 59  1  0  0  0  0
 26 60  1  0  0  0  0
 26 61  1  0  0  0  0
 26 62  1  0  0  0  0
 27 63  1  0  0  0  0
 27 64  1  0  0  0  0
 27 65  1  0  0  0  0
 28 66  1  0  0  0  0
 28 67  1  0  0  0  0
 33 68  1  0  0  0  0
M  CHG  1  33   1
M  END
> <SMILES>
COc1cc2c(cc1OCc1ccc(cc1)C(F)(F)F)N(CC12CCN(C)CC1)c1ccn2ccnc2c1

> <FORMATTED_ID>
H3D-013873

> <MOLFORMULA>
C29H29F3N4O2

> <Exact Mass>
522.22

> <XLogP>
7.06

> <TPSA_NOPS>
42.2

> <s_m_source_file>
ligprep_h3d.sdf

> <i_m_source_file_index>
5139

> <i_lp_mmshare_version>
55123

> <i_f3d_flags>
0

> <s_epik_input>
W2NIXTFbY0hdYyhDKEYpKEYpRilbY0hdW2NIXWMxW0NIMl1PYyhjKFtjSF0yKU9bQ0gzXSlbY0hdYyhjMkMzNFtDSDJdW0NIMl1OKFtDSDNdKVtDSDJdW0NIMl00KU4oW0NIMl0zKWMoW2NIXVtjSF01KVtjSF1jKG41NiluW2NIXVtjSF02

> <s_epik_cmdline>
J2VwaWtfcHl0aG9uJywgJy1waHQnLCAnMC41JywgJy1waCcsICc3LjUnLCAnLXRuJywgJzgnLCAnLW1hJywgJzUwMCcsICctaW1hZScsICc8aW5maWxlLm1hZT4nLCAnLW9tYWUnLCAnPG91dGZpbGUubWFlPic=

> <r_lp_tautomer_probability>
1

> <r_epik_Ionization_Penalty>
0.43281

> <r_epik_Ionization_Penalty_Charging>
0.43281

> <r_epik_Ionization_Penalty_Neutral>
3.07946e-10

> <r_epik_State_Penalty>
0.425628

> <r_epik_Charging_Adjusted_Penalty>
0.858438

> <i_epik_Tot_Q>
1

> <i_epik_Tot_abs_Q>
1

> <s_lp_Force_Field>
S-OPLS

> <r_lp_Energy>
73.9063

> <b_lp_Chiralities_Consistent>
1

> <s_lp_Variant>
ligprep_h3d.sdf:5139-2

> <ROCS_ShapeQuery>
_7L13

> <ROCS_TanimotoCombo>
0.778 

> <ROCS_ShapeTanimoto>
0.676 

> <ROCS_ColorTanimoto>
0.101 

> <ROCS_RefTversky>
0.833 

> <ROCS_RefColorTversky>
0.202 

> <ROCS_RefTverskyCombo>
1.035 

> <ROCS_FitTversky>
0.783 

> <ROCS_FitColorTversky>
0.168 

> <ROCS_FitTverskyCombo>
0.951 

> <ROCS_ColorScore>
-1.843

> <ROCS_Overlap>
1387.465

> <ROCS_Rank>
18                  

$$$$
ligprep_h3d.sdf:2383_1690
  -OEChem-08212117123D

102106  0     1  0  0  0  0  0999 V2000
  -25.8794   -5.5493  -24.0915 C   0  0  0  0  0  0  0  0  0  0  0  0
  -25.4548   -5.4871  -22.7643 C   0  0  0  0  0  0  0  0  0  0  0  0
  -25.3329   -4.6848  -25.0399 C   0  0  0  0  0  0  0  0  0  0  0  0
  -24.4838   -4.5601  -22.3855 C   0  0  0  0  0  0  0  0  0  0  0  0
  -24.3618   -3.7578  -24.6611 C   0  0  0  0  0  0  0  0  0  0  0  0
  -23.9372   -3.6955  -23.3339 C   0  0  0  0  0  0  0  0  0  0  0  0
  -21.7877   -4.0719  -29.6349 C   0  0  0  0  0  0  0  0  0  0  0  0
  -18.7093   -5.3534  -25.8765 C   0  0  0  0  0  0  0  0  0  0  0  0
  -21.3530   -3.9956  -28.3716 C   0  0  0  0  0  0  0  0  0  0  0  0
  -17.3999   -5.0441  -25.9335 C   0  0  0  0  0  0  0  0  0  0  0  0
  -22.0081   -3.0405  -27.4247 C   0  0  0  0  0  0  0  0  0  0  0  0
  -23.7012   -0.9978  -30.0223 C   0  0  0  0  0  0  0  0  0  0  0  0
  -20.3311   -4.5596  -35.7460 C   0  0  0  0  0  0  0  0  0  0  0  0
  -19.0146   -8.7961  -35.7299 C   0  0  0  0  0  0  0  0  0  0  0  0
  -21.2710   -4.1404  -34.6023 C   0  0  0  0  0  0  0  0  0  0  0  0
  -19.4804   -8.0891  -34.4448 C   0  0  0  0  0  0  0  0  0  0  0  0
  -19.8612   -5.6008  -30.6253 C   0  0  0  0  0  0  0  0  0  0  0  0
  -22.8298   -3.5263  -31.7470 C   0  0  0  0  0  0  0  0  0  0  0  0
  -21.2514   -4.9763  -30.7176 C   0  0  2  0  0  0  0  0  0  0  0  0
  -22.8726   -3.2010  -30.2374 C   0  0  2  0  0  0  0  0  0  0  0  0
  -20.1329   -6.0719  -35.7768 C   0  0  1  0  0  0  0  0  0  0  0  0
  -19.8309   -5.7600  -33.2026 C   0  0  1  0  0  0  0  0  0  0  0  0
  -19.5528   -6.6766  -37.0842 C   0  0  1  0  0  0  0  0  0  0  0  0
  -19.6351   -8.2235  -37.0066 C   0  0  2  0  0  0  0  0  0  0  0  0
  -19.6014   -6.5007  -31.8506 C   0  0  2  0  0  0  0  0  0  0  0  0
  -19.3452   -6.5457  -34.5068 C   0  0  1  0  0  0  0  0  0  0  0  0
  -21.2306   -5.0223  -33.3046 C   0  0  1  0  0  0  0  0  0  0  0  0
  -21.4106   -4.1076  -31.9972 C   0  0  1  0  0  0  0  0  0  0  0  0
  -16.3700   -5.9985  -25.3888 C   0  0  0  0  0  0  0  0  0  0  0  0
  -16.8260   -3.7795  -26.5067 C   0  0  0  0  0  0  0  0  0  0  0  0
  -23.5942    0.0202  -31.1170 C   0  0  0  0  0  0  0  0  0  0  0  0
  -20.2658   -6.1651  -38.3429 C   0  0  0  0  0  0  0  0  0  0  0  0
  -17.8174   -6.2215  -34.6263 C   0  0  0  0  0  0  0  0  0  0  0  0
  -22.3983   -6.0519  -33.4012 C   0  0  0  0  0  0  0  0  0  0  0  0
  -20.4041   -2.9008  -31.9831 C   0  0  0  0  0  0  0  0  0  0  0  0
  -24.8662   -1.9549  -26.3603 C   0  0  0  0  0  0  0  0  0  0  0  0
  -19.8777   -4.5442  -26.3690 C   0  0  0  0  0  0  0  0  0  0  0  0
  -20.1615   -4.7678  -27.8608 C   0  0  0  0  0  0  0  0  0  0  0  0
  -23.7959   -2.8366  -25.7202 C   0  0  2  0  0  0  0  0  0  0  0  0
  -23.0772   -3.5782  -26.7304 N   0  0  0  0  0  0  0  0  0  0  0  0
  -21.5575   -1.9080  -27.2710 O   0  0  0  0  0  0  0  0  0  0  0  0
  -24.6384   -1.0653  -29.2386 O   0  0  0  0  0  0  0  0  0  0  0  0
  -20.9953   -8.6623  -37.0461 O   0  0  0  0  0  0  0  0  0  0  0  0
  -20.4380   -7.6499  -31.7534 O   0  0  0  0  0  0  0  0  0  0  0  0
  -22.6073   -1.8201  -30.0398 O   0  0  0  0  0  0  0  0  0  0  0  0
  -22.7378   -2.5621  -22.8280 Cl  0  0  0  0  0  0  0  0  0  0  0  0
  -26.6350   -6.2718  -24.3865 H   0  0  0  0  0  0  0  0  0  0  0  0
  -25.8797   -6.1612  -22.0264 H   0  0  0  0  0  0  0  0  0  0  0  0
  -25.6705   -4.7420  -26.0715 H   0  0  0  0  0  0  0  0  0  0  0  0
  -24.1629   -4.5252  -21.3475 H   0  0  0  0  0  0  0  0  0  0  0  0
  -18.9888   -6.3072  -25.4299 H   0  0  0  0  0  0  0  0  0  0  0  0
  -20.7698   -4.1893  -36.6780 H   0  0  0  0  0  0  0  0  0  0  0  0
  -19.3692   -4.0458  -35.6422 H   0  0  0  0  0  0  0  0  0  0  0  0
  -17.9227   -8.7491  -35.8035 H   0  0  0  0  0  0  0  0  0  0  0  0
  -19.2701   -9.8598  -35.6423 H   0  0  0  0  0  0  0  0  0  0  0  0
  -21.0504   -3.0909  -34.3963 H   0  0  0  0  0  0  0  0  0  0  0  0
  -22.2969   -4.1221  -34.9941 H   0  0  0  0  0  0  0  0  0  0  0  0
  -20.5247   -8.3652  -34.2599 H   0  0  0  0  0  0  0  0  0  0  0  0
  -18.8919   -8.4970  -33.6148 H   0  0  0  0  0  0  0  0  0  0  0  0
  -19.0868   -4.8287  -30.5570 H   0  0  0  0  0  0  0  0  0  0  0  0
  -19.7939   -6.2041  -29.7118 H   0  0  0  0  0  0  0  0  0  0  0  0
  -23.6048   -4.2722  -31.9499 H   0  0  0  0  0  0  0  0  0  0  0  0
  -23.0354   -2.6525  -32.3744 H   0  0  0  0  0  0  0  0  0  0  0  0
  -21.9684   -5.8067  -30.7295 H   0  0  0  0  0  0  0  0  0  0  0  0
  -23.8571   -3.4366  -29.8232 H   0  0  0  0  0  0  0  0  0  0  0  0
  -21.1453   -6.4850  -35.7346 H   0  0  0  0  0  0  0  0  0  0  0  0
  -19.1174   -4.9302  -33.1432 H   0  0  0  0  0  0  0  0  0  0  0  0
  -18.5016   -6.3889  -37.1918 H   0  0  0  0  0  0  0  0  0  0  0  0
  -19.1294   -8.6686  -37.8720 H   0  0  0  0  0  0  0  0  0  0  0  0
  -18.5651   -6.8536  -31.7999 H   0  0  0  0  0  0  0  0  0  0  0  0
  -16.0440   -6.6913  -26.1718 H   0  0  0  0  0  0  0  0  0  0  0  0
  -15.4806   -5.4831  -25.0111 H   0  0  0  0  0  0  0  0  0  0  0  0
  -16.7921   -6.5801  -24.5627 H   0  0  0  0  0  0  0  0  0  0  0  0
  -16.7216   -2.9735  -25.7783 H   0  0  0  0  0  0  0  0  0  0  0  0
  -17.4659   -3.4104  -27.3152 H   0  0  0  0  0  0  0  0  0  0  0  0
  -15.8296   -3.9726  -26.9186 H   0  0  0  0  0  0  0  0  0  0  0  0
  -23.0779    0.9095  -30.7473 H   0  0  0  0  0  0  0  0  0  0  0  0
  -24.5914    0.2775  -31.4830 H   0  0  0  0  0  0  0  0  0  0  0  0
  -23.0169   -0.3986  -31.9464 H   0  0  0  0  0  0  0  0  0  0  0  0
  -21.3198   -6.4234  -38.2921 H   0  0  0  0  0  0  0  0  0  0  0  0
  -19.8224   -6.6243  -39.2219 H   0  0  0  0  0  0  0  0  0  0  0  0
  -20.1599   -5.0857  -38.4054 H   0  0  0  0  0  0  0  0  0  0  0  0
  -17.7095   -5.1517  -34.6702 H   0  0  0  0  0  0  0  0  0  0  0  0
  -17.4514   -6.6838  -35.5265 H   0  0  0  0  0  0  0  0  0  0  0  0
  -17.3257   -6.6240  -33.7577 H   0  0  0  0  0  0  0  0  0  0  0  0
  -22.3810   -6.6645  -32.5141 H   0  0  0  0  0  0  0  0  0  0  0  0
  -22.2448   -6.6531  -34.2829 H   0  0  0  0  0  0  0  0  0  0  0  0
  -23.3248   -5.5046  -33.4689 H   0  0  0  0  0  0  0  0  0  0  0  0
  -19.4200   -3.2964  -32.1557 H   0  0  0  0  0  0  0  0  0  0  0  0
  -20.4723   -2.4322  -31.0184 H   0  0  0  0  0  0  0  0  0  0  0  0
  -20.6958   -2.2253  -32.7663 H   0  0  0  0  0  0  0  0  0  0  0  0
  -25.6431   -2.5616  -26.8384 H   0  0  0  0  0  0  0  0  0  0  0  0
  -25.3461   -1.3235  -25.6041 H   0  0  0  0  0  0  0  0  0  0  0  0
  -24.4458   -1.2851  -27.1189 H   0  0  0  0  0  0  0  0  0  0  0  0
  -20.7844   -4.7186  -25.7833 H   0  0  0  0  0  0  0  0  0  0  0  0
  -19.6312   -3.4851  -26.2196 H   0  0  0  0  0  0  0  0  0  0  0  0
  -19.2741   -4.4769  -28.4373 H   0  0  0  0  0  0  0  0  0  0  0  0
  -20.2964   -5.8416  -28.0465 H   0  0  0  0  0  0  0  0  0  0  0  0
  -23.0507   -2.1756  -25.2608 H   0  0  0  0  0  0  0  0  0  0  0  0
  -23.3674   -4.5290  -26.9386 H   0  0  0  0  0  0  0  0  0  0  0  0
  -20.9682   -9.6303  -37.0564 H   0  0  0  0  0  0  0  0  0  0  0  0
  -20.1965   -8.0988  -30.9283 H   0  0  0  0  0  0  0  0  0  0  0  0
  1  2  2  0  0  0  0
  1  3  1  0  0  0  0
  2  4  1  0  0  0  0
  3  5  2  0  0  0  0
  4  6  2  0  0  0  0
  5  6  1  0  0  0  0
  5 39  1  0  0  0  0
  6 46  1  0  0  0  0
  7  9  2  0  0  0  0
  7 19  1  0  0  0  0
  7 20  1  0  0  0  0
  8 10  2  0  0  0  0
  8 37  1  0  0  0  0
  9 11  1  0  0  0  0
  9 38  1  0  0  0  0
 10 29  1  0  0  0  0
 10 30  1  0  0  0  0
 11 40  1  0  0  0  0
 11 41  2  0  0  0  0
 12 31  1  0  0  0  0
 12 42  2  0  0  0  0
 12 45  1  0  0  0  0
 13 15  1  0  0  0  0
 13 21  1  0  0  0  0
 14 16  1  0  0  0  0
 14 24  1  0  0  0  0
 15 27  1  0  0  0  0
 16 26  1  0  0  0  0
 17 19  1  0  0  0  0
 17 25  1  0  0  0  0
 18 20  1  0  0  0  0
 18 28  1  0  0  0  0
 19 28  1  0  0  0  0
 20 45  1  0  0  0  0
 21 23  1  0  0  0  0
 21 26  1  0  0  0  0
 22 25  1  0  0  0  0
 22 26  1  0  0  0  0
 22 27  1  0  0  0  0
 23 24  1  0  0  0  0
 23 32  1  0  0  0  0
 24 43  1  0  0  0  0
 25 44  1  0  0  0  0
 26 33  1  0  0  0  0
 27 28  1  0  0  0  0
 27 34  1  0  0  0  0
 28 35  1  0  0  0  0
 36 39  1  0  0  0  0
 37 38  1  0  0  0  0
 39 40  1  0  0  0  0
  1 47  1  0  0  0  0
  2 48  1  0  0  0  0
  3 49  1  0  0  0  0
  4 50  1  0  0  0  0
  8 51  1  0  0  0  0
 13 52  1  0  0  0  0
 13 53  1  0  0  0  0
 14 54  1  0  0  0  0
 14 55  1  0  0  0  0
 15 56  1  0  0  0  0
 15 57  1  0  0  0  0
 16 58  1  0  0  0  0
 16 59  1  0  0  0  0
 17 60  1  0  0  0  0
 17 61  1  0  0  0  0
 18 62  1  0  0  0  0
 18 63  1  0  0  0  0
 19 64  1  0  0  0  0
 20 65  1  0  0  0  0
 21 66  1  0  0  0  0
 22 67  1  0  0  0  0
 23 68  1  0  0  0  0
 24 69  1  0  0  0  0
 25 70  1  0  0  0  0
 29 71  1  0  0  0  0
 29 72  1  0  0  0  0
 29 73  1  0  0  0  0
 30 74  1  0  0  0  0
 30 75  1  0  0  0  0
 30 76  1  0  0  0  0
 31 77  1  0  0  0  0
 31 78  1  0  0  0  0
 31 79  1  0  0  0  0
 32 80  1  0  0  0  0
 32 81  1  0  0  0  0
 32 82  1  0  0  0  0
 33 83  1  0  0  0  0
 33 84  1  0  0  0  0
 33 85  1  0  0  0  0
 34 86  1  0  0  0  0
 34 87  1  0  0  0  0
 34 88  1  0  0  0  0
 35 89  1  0  0  0  0
 35 90  1  0  0  0  0
 35 91  1  0  0  0  0
 36 92  1  0  0  0  0
 36 93  1  0  0  0  0
 36 94  1  0  0  0  0
 37 95  1  0  0  0  0
 37 96  1  0  0  0  0
 38 97  1  0  0  0  0
 38 98  1  0  0  0  0
 39 99  1  0  0  0  0
 40100  1  0  0  0  0
 43101  1  0  0  0  0
 44102  1  0  0  0  0
M  END
> <SMILES>
C[C@H](NC(=O)/C(=C/1\[C@H](C[C@@]2(C)[C@H]1C[C@@H](O)[C@H]1[C@@]3(C)CC[C@@H](O)[C@@H](C)[C@@H]3CC[C@@]12C)OC(=O)C)CCC=C(C)C)c1ccccc1Cl

> <FORMATTED_ID>
H3D-005472

> <MOLFORMULA>
C39H56ClNO5

> <Exact Mass>
653.38

> <XLogP>
8.16

> <TPSA_NOPS>
95.9

> <s_m_source_file>
ligprep_h3d.sdf

> <i_m_source_file_index>
2383

> <i_lp_mmshare_version>
55123

> <i_f3d_flags>
0

> <s_epik_input>
Q2xjMVtjSF1bY0hdW2NIXVtjSF1jMVtDQEhdKFtDSDNdKVtOSF1DKD1PKS9DKFtDSDJdW0NIMl1bQ0hdPUMoW0NIM10pW0NIM10pPUMoXFtDQEhdKFtDSDJdMilPQyg9TylbQ0gzXSlbQ0BASF0oW0NAXTIzW0NIM10pW0NIMl1bQ0BASF0oW09IXSlbQ0BIXTRbQ0BdNShbQ0gzXSlbQ0BIXShbQ0BIXShbQ0gzXSlbQ0BIXShbT0hdKVtDSDJdW0NIMl01KVtDSDJdW0NIMl1bQ0BdMzRbQ0gzXQ==

> <s_epik_cmdline>
J2VwaWtfcHl0aG9uJywgJy1waHQnLCAnMC41JywgJy1waCcsICc3LjUnLCAnLXRuJywgJzgnLCAnLW1hJywgJzUwMCcsICctaW1hZScsICc8aW5maWxlLm1hZT4nLCAnLW9tYWUnLCAnPG91dGZpbGUubWFlPic=

> <r_lp_tautomer_probability>
1

> <r_epik_Ionization_Penalty>
1.59115e-06

> <r_epik_Ionization_Penalty_Charging>
0

> <r_epik_Ionization_Penalty_Neutral>
1.59115e-06

> <r_epik_State_Penalty>
-0

> <r_epik_Charging_Adjusted_Penalty>
0

> <i_epik_Tot_Q>
0

> <i_epik_Tot_abs_Q>
0

> <s_epik_Chemistry_Notes>
This compound has an ester and may undergo hydrolysis at high or low pH.

> <s_lp_Force_Field>
S-OPLS

> <r_lp_Energy>
83.3051

> <b_lp_Chiralities_Consistent>
1

> <s_lp_Variant>
ligprep_h3d.sdf:2383-1

> <ROCS_ShapeQuery>
_7L13

> <ROCS_TanimotoCombo>
0.707 

> <ROCS_ShapeTanimoto>
0.615 

> <ROCS_ColorTanimoto>
0.092 

> <ROCS_RefTversky>
0.833 

> <ROCS_RefColorTversky>
0.209 

> <ROCS_RefTverskyCombo>
1.042 

> <ROCS_FitTversky>
0.702 

> <ROCS_FitColorTversky>
0.141 

> <ROCS_FitTverskyCombo>
0.843 

> <ROCS_ColorScore>
-1.937

> <ROCS_Overlap>
1396.990

> <ROCS_Rank>
19                  

$$$$
ligprep_h3d.sdf:559_234
  -OEChem-08212117123D

 66 72  0     1  0  0  0  0  0999 V2000
  -20.9517   -5.0920  -29.5188 C   0  0  0  0  0  0  0  0  0  0  0  0
  -21.7458   -4.3460  -30.3920 C   0  0  0  0  0  0  0  0  0  0  0  0
  -21.0679   -4.8621  -28.1262 C   0  0  0  0  0  0  0  0  0  0  0  0
  -21.9873   -3.9341  -27.5830 C   0  0  0  0  0  0  0  0  0  0  0  0
  -22.6141   -3.4192  -29.8587 C   0  0  0  0  0  0  0  0  0  0  0  0
  -22.7651   -3.1790  -28.4927 C   0  0  0  0  0  0  0  0  0  0  0  0
  -21.9472   -4.2344  -31.7803 C   0  0  0  0  0  0  0  0  0  0  0  0
  -18.9230   -3.7629  -26.2080 C   0  0  0  0  0  0  0  0  0  0  0  0
  -19.2122   -6.0434  -25.0409 C   0  0  0  0  0  0  0  0  0  0  0  0
  -16.9714   -5.2277  -25.7422 C   0  0  0  0  0  0  0  0  0  0  0  0
  -20.1817   -5.6696  -27.2158 C   0  0  0  0  0  0  0  0  0  0  0  0
  -19.6062   -6.8267  -33.0680 C   0  0  0  0  0  0  0  0  0  0  0  0
  -20.2848   -5.3237  -34.9487 C   0  0  0  0  0  0  0  0  0  0  0  0
  -20.8149   -6.3569  -32.2599 C   0  0  0  0  0  0  0  0  0  0  0  0
  -21.4894   -4.8506  -34.1346 C   0  0  0  0  0  0  0  0  0  0  0  0
  -23.0730   -2.8247  -25.6405 C   0  0  0  0  0  0  0  0  0  0  0  0
  -20.2106   -8.7135  -35.6405 C   0  0  0  0  0  0  0  0  0  0  0  0
  -19.0403   -8.0094  -36.2688 C   0  0  0  0  0  0  0  0  0  0  0  0
  -21.2006   -4.4669  -25.2418 C   0  0  2  0  0  0  0  0  0  0  0  0
  -23.4346   -3.1537  -24.1894 C   0  0  1  0  0  0  0  0  0  0  0  0
  -21.0527   -3.5368  -24.0026 C   0  0  2  0  0  0  0  0  0  0  0  0
  -19.8625   -4.9374  -25.8884 C   0  0  0  0  0  0  0  0  0  0  0  0
  -19.8569   -6.7429  -34.5742 C   0  0  0  0  0  0  0  0  0  0  0  0
  -24.3977   -4.3340  -24.0763 C   0  0  0  0  0  0  0  0  0  0  0  0
  -20.0868   -4.0067  -22.9214 C   0  0  0  0  0  0  0  0  0  0  0  0
  -22.8647   -3.3122  -32.0868 N   0  0  0  0  0  0  0  0  0  0  0  0
  -17.5735   -4.0775  -26.2318 N   0  0  0  0  0  0  0  0  0  0  0  0
  -17.8331   -6.1366  -25.1448 N   0  0  0  0  0  0  0  0  0  0  0  0
  -22.0989   -3.7705  -26.2002 N   0  0  3  0  0  0  0  0  0  0  0  0
  -21.2393   -5.0196  -32.6985 N   0  0  0  0  0  0  0  0  0  0  0  0
  -19.3251   -2.6337  -26.4883 O   0  0  0  0  0  0  0  0  0  0  0  0
  -19.8669   -6.8527  -24.3825 O   0  0  0  0  0  0  0  0  0  0  0  0
  -15.7541   -5.4103  -25.7974 O   0  0  0  0  0  0  0  0  0  0  0  0
  -23.2840   -2.7956  -30.8663 O   0  0  0  0  0  0  0  0  0  0  0  0
  -20.8921   -7.6663  -34.9522 O   0  0  0  0  0  0  0  0  0  0  0  0
  -18.6425   -7.0758  -35.2660 O   0  0  0  0  0  0  0  0  0  0  0  0
  -22.3165   -3.3977  -23.3415 O   0  0  0  0  0  0  0  0  0  0  0  0
  -23.5655   -2.1733  -28.1204 F   0  0  0  0  0  0  0  0  0  0  0  0
  -20.2508   -5.8290  -29.9008 H   0  0  0  0  0  0  0  0  0  0  0  0
  -20.6914   -6.6234  -27.0220 H   0  0  0  0  0  0  0  0  0  0  0  0
  -19.2464   -5.9138  -27.7380 H   0  0  0  0  0  0  0  0  0  0  0  0
  -18.7236   -6.2309  -32.8011 H   0  0  0  0  0  0  0  0  0  0  0  0
  -19.3714   -7.8607  -32.7860 H   0  0  0  0  0  0  0  0  0  0  0  0
  -20.5404   -5.2809  -36.0149 H   0  0  0  0  0  0  0  0  0  0  0  0
  -19.4448   -4.6308  -34.8091 H   0  0  0  0  0  0  0  0  0  0  0  0
  -21.6498   -7.0596  -32.3755 H   0  0  0  0  0  0  0  0  0  0  0  0
  -20.5446   -6.3455  -31.1962 H   0  0  0  0  0  0  0  0  0  0  0  0
  -21.6816   -3.7962  -34.3711 H   0  0  0  0  0  0  0  0  0  0  0  0
  -22.3866   -5.4156  -34.4174 H   0  0  0  0  0  0  0  0  0  0  0  0
  -23.9846   -2.8802  -26.2708 H   0  0  0  0  0  0  0  0  0  0  0  0
  -22.7813   -1.7637  -25.6755 H   0  0  0  0  0  0  0  0  0  0  0  0
  -20.8704   -9.1929  -36.3677 H   0  0  0  0  0  0  0  0  0  0  0  0
  -19.8870   -9.4540  -34.9011 H   0  0  0  0  0  0  0  0  0  0  0  0
  -18.2156   -8.6795  -36.5235 H   0  0  0  0  0  0  0  0  0  0  0  0
  -19.3387   -7.4464  -37.1598 H   0  0  0  0  0  0  0  0  0  0  0  0
  -21.7616   -5.3577  -24.9190 H   0  0  0  0  0  0  0  0  0  0  0  0
  -23.9976   -2.2591  -23.7488 H   0  0  0  0  0  0  0  0  0  0  0  0
  -20.7269   -2.5257  -24.3084 H   0  0  0  0  0  0  0  0  0  0  0  0
  -23.9331   -5.2345  -24.4783 H   0  0  0  0  0  0  0  0  0  0  0  0
  -25.3095   -4.1265  -24.6366 H   0  0  0  0  0  0  0  0  0  0  0  0
  -24.6562   -4.5058  -23.0312 H   0  0  0  0  0  0  0  0  0  0  0  0
  -20.3640   -5.0048  -22.5822 H   0  0  0  0  0  0  0  0  0  0  0  0
  -20.1166   -3.3236  -22.0726 H   0  0  0  0  0  0  0  0  0  0  0  0
  -19.0713   -4.0365  -23.3164 H   0  0  0  0  0  0  0  0  0  0  0  0
  -16.9570   -3.3900  -26.6543 H   0  0  0  0  0  0  0  0  0  0  0  0
  -17.3991   -6.9332  -24.6873 H   0  0  0  0  0  0  0  0  0  0  0  0
  1  2  2  0  0  0  0
  1  3  1  0  0  0  0
  2  5  1  0  0  0  0
  2  7  1  0  0  0  0
  3  4  2  0  0  0  0
  3 11  1  0  0  0  0
  4  6  1  0  0  0  0
  4 29  1  0  0  0  0
  5  6  2  0  0  0  0
  5 34  1  0  0  0  0
  6 38  1  0  0  0  0
  7 26  2  0  0  0  0
  7 30  1  0  0  0  0
  8 22  1  0  0  0  0
  8 27  1  0  0  0  0
  8 31  2  0  0  0  0
  9 22  1  0  0  0  0
  9 28  1  0  0  0  0
  9 32  2  0  0  0  0
 10 27  1  0  0  0  0
 10 28  1  0  0  0  0
 10 33  2  0  0  0  0
 11 22  1  0  0  0  0
 12 14  1  0  0  0  0
 12 23  1  0  0  0  0
 13 15  1  0  0  0  0
 13 23  1  0  0  0  0
 14 30  1  0  0  0  0
 15 30  1  0  0  0  0
 16 20  1  0  0  0  0
 16 29  1  0  0  0  0
 17 18  1  0  0  0  0
 17 35  1  0  0  0  0
 18 36  1  0  0  0  0
 19 21  1  0  0  0  0
 19 22  1  0  0  0  0
 19 29  1  0  0  0  0
 20 24  1  0  0  0  0
 20 37  1  0  0  0  0
 21 25  1  0  0  0  0
 21 37  1  0  0  0  0
 23 35  1  0  0  0  0
 23 36  1  0  0  0  0
 26 34  1  0  0  0  0
  1 39  1  0  0  0  0
 11 40  1  0  0  0  0
 11 41  1  0  0  0  0
 12 42  1  0  0  0  0
 12 43  1  0  0  0  0
 13 44  1  0  0  0  0
 13 45  1  0  0  0  0
 14 46  1  0  0  0  0
 14 47  1  0  0  0  0
 15 48  1  0  0  0  0
 15 49  1  0  0  0  0
 16 50  1  0  0  0  0
 16 51  1  0  0  0  0
 17 52  1  0  0  0  0
 17 53  1  0  0  0  0
 18 54  1  0  0  0  0
 18 55  1  0  0  0  0
 19 56  1  0  0  0  0
 20 57  1  0  0  0  0
 21 58  1  0  0  0  0
 24 59  1  0  0  0  0
 24 60  1  0  0  0  0
 24 61  1  0  0  0  0
 25 62  1  0  0  0  0
 25 63  1  0  0  0  0
 25 64  1  0  0  0  0
 27 65  1  0  0  0  0
 28 66  1  0  0  0  0
M  END
> <SMILES>
C[C@@H]1CN2[C@H]([C@H](C)O1)C1(Cc3cc4c(noc4c(c32)F)N2CCC3(CC2)OCCO3)C(=O)NC(=O)NC1=O

> <FORMATTED_ID>
H3D-004273

> <MOLFORMULA>
C25H28FN5O7

> <Exact Mass>
529.2

> <XLogP>
0.91

> <TPSA_NOPS>
135.8

> <s_m_source_file>
ligprep_h3d.sdf

> <i_m_source_file_index>
559

> <i_lp_mmshare_version>
55123

> <i_f3d_flags>
0

> <s_epik_input>
Tz1DMVtOSF1DKD1PKVtOSF1DKD1PKUMxMltDQEBIXTNOKFtDSDJdW0NAQEhdKFtDSDNdKU9bQ0BIXTNbQ0gzXSljNGMoW0NIMl0yKVtjSF1jNWMoYzRGKW9uYzVOKFtDSDJdW0NIMl02KVtDSDJdW0NIMl1DNjdPW0NIMl1bQ0gyXU83

> <s_epik_cmdline>
J2VwaWtfcHl0aG9uJywgJy1waHQnLCAnMC41JywgJy1waCcsICc3LjUnLCAnLXRuJywgJzgnLCAnLW1hJywgJzUwMCcsICctaW1hZScsICc8aW5maWxlLm1hZT4nLCAnLW9tYWUnLCAnPG91dGZpbGUubWFlPic=

> <r_lp_tautomer_probability>
1

> <r_epik_Ionization_Penalty>
0.369125

> <r_epik_Ionization_Penalty_Charging>
0

> <r_epik_Ionization_Penalty_Neutral>
0.369125

> <r_epik_State_Penalty>
0.366447

> <r_epik_Charging_Adjusted_Penalty>
0.366447

> <i_epik_Tot_Q>
0

> <i_epik_Tot_abs_Q>
0

> <s_lp_Force_Field>
S-OPLS

> <r_lp_Energy>
42.3198

> <b_lp_Chiralities_Consistent>
1

> <s_lp_Variant>
ligprep_h3d.sdf:559-1

> <ROCS_ShapeQuery>
_7L13

> <ROCS_TanimotoCombo>
0.792 

> <ROCS_ShapeTanimoto>
0.668 

> <ROCS_ColorTanimoto>
0.124 

> <ROCS_RefTversky>
0.832 

> <ROCS_RefColorTversky>
0.296 

> <ROCS_RefTverskyCombo>
1.128 

> <ROCS_FitTversky>
0.771 

> <ROCS_FitColorTversky>
0.176 

> <ROCS_FitTverskyCombo>
0.947 

> <ROCS_ColorScore>
-2.764

> <ROCS_Overlap>
1388.410

> <ROCS_Rank>
20                  

$$$$
ligprep_h3d.sdf:5341_1294
  -OEChem-08212117123D

 75 80  0     0  0  0  0  0  0999 V2000
  -20.8704   -6.5069  -33.6073 C   0  0  0  0  0  0  0  0  0  0  0  0
  -20.0197   -4.2627  -33.3301 C   0  0  0  0  0  0  0  0  0  0  0  0
  -19.9016   -6.7541  -34.5798 C   0  0  0  0  0  0  0  0  0  0  0  0
  -19.0508   -4.5099  -34.3027 C   0  0  0  0  0  0  0  0  0  0  0  0
  -23.7110   -4.1326  -28.1052 C   0  0  0  0  0  0  0  0  0  0  0  0
  -20.9677   -4.3758  -28.6938 C   0  0  0  0  0  0  0  0  0  0  0  0
  -15.2000   -6.4713  -25.3051 C   0  0  0  0  0  0  0  0  0  0  0  0
  -15.2262   -5.1985  -25.8245 C   0  0  0  0  0  0  0  0  0  0  0  0
  -22.7811   -4.3617  -27.0981 C   0  0  0  0  0  0  0  0  0  0  0  0
  -20.9295   -5.2611  -32.9824 C   0  0  0  0  0  0  0  0  0  0  0  0
  -21.4156   -4.4854  -27.3823 C   0  0  0  0  0  0  0  0  0  0  0  0
  -23.2608   -4.0314  -29.4208 C   0  0  0  0  0  0  0  0  0  0  0  0
  -21.8972   -4.1513  -29.7133 C   0  0  0  0  0  0  0  0  0  0  0  0
  -18.9918   -5.7556  -34.9275 C   0  0  0  0  0  0  0  0  0  0  0  0
  -17.2719   -6.0159  -25.5664 C   0  0  0  0  0  0  0  0  0  0  0  0
  -18.6934   -5.9421  -25.6482 C   0  0  0  0  0  0  0  0  0  0  0  0
  -18.4908   -3.6909  -26.5593 C   0  0  0  0  0  0  0  0  0  0  0  0
  -17.1517   -3.7520  -26.4851 C   0  0  0  0  0  0  0  0  0  0  0  0
  -19.3045   -4.8313  -26.1234 C   0  0  0  0  0  0  0  0  0  0  0  0
  -25.9437   -3.9766  -22.5770 C   0  0  0  0  0  0  0  0  0  0  0  0
  -23.3886   -3.0783  -25.0305 C   0  0  0  0  0  0  0  0  0  0  0  0
  -24.1023   -5.4932  -25.2526 C   0  0  0  0  0  0  0  0  0  0  0  0
  -23.7507   -3.1340  -23.5446 C   0  0  0  0  0  0  0  0  0  0  0  0
  -24.4049   -5.5100  -23.7559 C   0  0  0  0  0  0  0  0  0  0  0  0
  -21.6032   -4.9250  -25.1243 C   0  0  0  0  0  0  0  0  0  0  0  0
  -23.0152   -4.4609  -25.6098 C   0  0  0  0  0  0  0  0  0  0  0  0
  -26.4217   -3.4068  -19.7218 C   0  0  0  0  0  0  0  0  0  0  0  0
  -27.3495   -1.1831  -20.3502 C   0  0  0  0  0  0  0  0  0  0  0  0
  -24.4470   -2.4476  -30.7401 C   0  0  0  0  0  0  0  0  0  0  0  0
  -21.9710   -4.9948  -31.9356 C   0  0  0  0  0  0  0  0  0  0  0  0
  -26.2057   -2.5836  -22.0622 C   0  0  0  0  0  0  0  0  0  0  0  0
  -16.4676   -6.9717  -25.1475 N   0  0  0  0  0  0  0  0  0  0  0  0
  -16.5548   -4.9052  -25.9929 N   0  0  0  0  0  0  0  0  0  0  0  0
  -20.6512   -4.7110  -26.2210 N   0  0  0  0  0  0  0  0  0  0  0  0
  -24.7531   -4.1713  -23.2782 N   0  0  0  0  0  0  0  0  0  0  0  0
  -27.0239   -2.5783  -20.8343 N   0  3  0  0  0  0  0  0  0  0  0  0
  -26.7746   -4.8633  -22.3634 O   0  0  0  0  0  0  0  0  0  0  0  0
  -24.1619   -3.8072  -30.4187 O   0  0  0  0  0  0  0  0  0  0  0  0
  -21.4596   -4.0478  -31.0008 O   0  0  0  0  0  0  0  0  0  0  0  0
  -18.0596   -5.9937  -35.8595 F   0  0  0  0  0  0  0  0  0  0  0  0
  -21.5755   -7.2908  -33.3436 H   0  0  0  0  0  0  0  0  0  0  0  0
  -20.0579   -3.2891  -32.8484 H   0  0  0  0  0  0  0  0  0  0  0  0
  -19.8551   -7.7240  -35.0658 H   0  0  0  0  0  0  0  0  0  0  0  0
  -18.3426   -3.7326  -34.5739 H   0  0  0  0  0  0  0  0  0  0  0  0
  -24.7660   -4.0235  -27.8749 H   0  0  0  0  0  0  0  0  0  0  0  0
  -19.9144   -4.4667  -28.9406 H   0  0  0  0  0  0  0  0  0  0  0  0
  -14.3305   -7.0530  -25.0361 H   0  0  0  0  0  0  0  0  0  0  0  0
  -14.4417   -4.4994  -26.0797 H   0  0  0  0  0  0  0  0  0  0  0  0
  -19.2723   -6.7999  -25.3198 H   0  0  0  0  0  0  0  0  0  0  0  0
  -18.9832   -2.8022  -26.9396 H   0  0  0  0  0  0  0  0  0  0  0  0
  -16.5085   -2.9369  -26.7939 H   0  0  0  0  0  0  0  0  0  0  0  0
  -24.2485   -2.6662  -25.5764 H   0  0  0  0  0  0  0  0  0  0  0  0
  -22.5674   -2.3644  -25.1751 H   0  0  0  0  0  0  0  0  0  0  0  0
  -23.8044   -6.4983  -25.5775 H   0  0  0  0  0  0  0  0  0  0  0  0
  -25.0332   -5.2665  -25.7890 H   0  0  0  0  0  0  0  0  0  0  0  0
  -22.8717   -3.3760  -22.9371 H   0  0  0  0  0  0  0  0  0  0  0  0
  -24.0905   -2.1470  -23.2256 H   0  0  0  0  0  0  0  0  0  0  0  0
  -25.2151   -6.2182  -23.5549 H   0  0  0  0  0  0  0  0  0  0  0  0
  -23.5328   -5.8459  -23.1833 H   0  0  0  0  0  0  0  0  0  0  0  0
  -21.2779   -4.3892  -24.2255 H   0  0  0  0  0  0  0  0  0  0  0  0
  -21.6072   -5.9950  -24.8775 H   0  0  0  0  0  0  0  0  0  0  0  0
  -25.4548   -2.9698  -19.4658 H   0  0  0  0  0  0  0  0  0  0  0  0
  -27.1056   -3.3723  -18.8716 H   0  0  0  0  0  0  0  0  0  0  0  0
  -26.3054   -4.4277  -20.0908 H   0  0  0  0  0  0  0  0  0  0  0  0
  -26.4083   -0.6843  -20.1116 H   0  0  0  0  0  0  0  0  0  0  0  0
  -27.8758   -0.6648  -21.1539 H   0  0  0  0  0  0  0  0  0  0  0  0
  -27.9801   -1.2757  -19.4638 H   0  0  0  0  0  0  0  0  0  0  0  0
  -25.1792   -2.4097  -31.5503 H   0  0  0  0  0  0  0  0  0  0  0  0
  -23.5260   -1.9430  -31.0430 H   0  0  0  0  0  0  0  0  0  0  0  0
  -24.8580   -1.9523  -29.8572 H   0  0  0  0  0  0  0  0  0  0  0  0
  -22.8855   -4.5940  -32.3859 H   0  0  0  0  0  0  0  0  0  0  0  0
  -22.2330   -5.9170  -31.4059 H   0  0  0  0  0  0  0  0  0  0  0  0
  -26.7457   -2.0165  -22.8143 H   0  0  0  0  0  0  0  0  0  0  0  0
  -25.2613   -2.1012  -21.8302 H   0  0  0  0  0  0  0  0  0  0  0  0
  -27.9367   -3.0203  -21.0506 H   0  0  0  0  0  0  0  0  0  0  0  0
  1  3  1  0  0  0  0
  1 10  2  0  0  0  0
  2  4  2  0  0  0  0
  2 10  1  0  0  0  0
  3 14  2  0  0  0  0
  4 14  1  0  0  0  0
  5  9  1  0  0  0  0
  5 12  2  0  0  0  0
  6 11  1  0  0  0  0
  6 13  2  0  0  0  0
  7  8  2  0  0  0  0
  7 32  1  0  0  0  0
  8 33  1  0  0  0  0
  9 11  2  0  0  0  0
  9 26  1  0  0  0  0
 10 30  1  0  0  0  0
 11 34  1  0  0  0  0
 12 13  1  0  0  0  0
 12 38  1  0  0  0  0
 13 39  1  0  0  0  0
 14 40  1  0  0  0  0
 15 16  1  0  0  0  0
 15 32  2  0  0  0  0
 15 33  1  0  0  0  0
 16 19  2  0  0  0  0
 17 18  2  0  0  0  0
 17 19  1  0  0  0  0
 18 33  1  0  0  0  0
 19 34  1  0  0  0  0
 20 31  1  0  0  0  0
 20 35  1  0  0  0  0
 20 37  2  0  0  0  0
 21 23  1  0  0  0  0
 21 26  1  0  0  0  0
 22 24  1  0  0  0  0
 22 26  1  0  0  0  0
 23 35  1  0  0  0  0
 24 35  1  0  0  0  0
 25 26  1  0  0  0  0
 25 34  1  0  0  0  0
 27 36  1  0  0  0  0
 28 36  1  0  0  0  0
 29 38  1  0  0  0  0
 30 39  1  0  0  0  0
 31 36  1  0  0  0  0
  1 41  1  0  0  0  0
  2 42  1  0  0  0  0
  3 43  1  0  0  0  0
  4 44  1  0  0  0  0
  5 45  1  0  0  0  0
  6 46  1  0  0  0  0
  7 47  1  0  0  0  0
  8 48  1  0  0  0  0
 16 49  1  0  0  0  0
 17 50  1  0  0  0  0
 18 51  1  0  0  0  0
 21 52  1  0  0  0  0
 21 53  1  0  0  0  0
 22 54  1  0  0  0  0
 22 55  1  0  0  0  0
 23 56  1  0  0  0  0
 23 57  1  0  0  0  0
 24 58  1  0  0  0  0
 24 59  1  0  0  0  0
 25 60  1  0  0  0  0
 25 61  1  0  0  0  0
 27 62  1  0  0  0  0
 27 63  1  0  0  0  0
 27 64  1  0  0  0  0
 28 65  1  0  0  0  0
 28 66  1  0  0  0  0
 28 67  1  0  0  0  0
 29 68  1  0  0  0  0
 29 69  1  0  0  0  0
 29 70  1  0  0  0  0
 30 71  1  0  0  0  0
 30 72  1  0  0  0  0
 31 73  1  0  0  0  0
 31 74  1  0  0  0  0
 36 75  1  0  0  0  0
M  CHG  1  36   1
M  END
> <SMILES>
COc1cc2c(cc1OCc1ccc(cc1)F)N(CC12CCN(CC1)C(=O)CN(C)C)c1ccn2ccnc2c1

> <FORMATTED_ID>
H3D-014969

> <MOLFORMULA>
C31H34FN5O3

> <Exact Mass>
543.26

> <XLogP>
5.9

> <TPSA_NOPS>
62.5

> <s_m_source_file>
ligprep_h3d.sdf

> <i_m_source_file_index>
5341

> <i_lp_mmshare_version>
55123

> <i_f3d_flags>
0

> <s_epik_input>
W2NIXTFbY0hdYyhGKVtjSF1bY0hdYzFbQ0gyXU9jKGMoW2NIXTIpT1tDSDNdKVtjSF1jKE4oW0NIMl0zKWMoW2NIXVtjSF00KVtjSF1jKG40NSluW2NIXVtjSF01KWMyQzM2W0NIMl1bQ0gyXU4oW0NIMl1bQ0gyXTYpQyg9TylbQ0gyXU4oW0NIM10pW0NIM10=

> <s_epik_cmdline>
J2VwaWtfcHl0aG9uJywgJy1waHQnLCAnMC41JywgJy1waCcsICc3LjUnLCAnLXRuJywgJzgnLCAnLW1hJywgJzUwMCcsICctaW1hZScsICc8aW5maWxlLm1hZT4nLCAnLW9tYWUnLCAnPG91dGZpbGUubWFlPic=

> <r_lp_tautomer_probability>
1

> <r_epik_Ionization_Penalty>
0.600126

> <r_epik_Ionization_Penalty_Charging>
0.600126

> <r_epik_Ionization_Penalty_Neutral>
6.41734e-09

> <r_epik_State_Penalty>
0.597817

> <r_epik_Charging_Adjusted_Penalty>
1.19794

> <i_epik_Tot_Q>
1

> <i_epik_Tot_abs_Q>
1

> <s_lp_Force_Field>
S-OPLS

> <r_lp_Energy>
73.8766

> <b_lp_Chiralities_Consistent>
1

> <s_lp_Variant>
ligprep_h3d.sdf:5341-2

> <ROCS_ShapeQuery>
_7L13

> <ROCS_TanimotoCombo>
0.761 

> <ROCS_ShapeTanimoto>
0.654 

> <ROCS_ColorTanimoto>
0.108 

> <ROCS_RefTversky>
0.831 

> <ROCS_RefColorTversky>
0.224 

> <ROCS_RefTverskyCombo>
1.055 

> <ROCS_FitTversky>
0.753 

> <ROCS_FitColorTversky>
0.172 

> <ROCS_FitTverskyCombo>
0.926 

> <ROCS_ColorScore>
-2.048

> <ROCS_Overlap>
1388.494

> <ROCS_Rank>
21                  

$$$$
ligprep_h3d.sdf:559_232
  -OEChem-08212117123D

 65 71  0     1  0  0  0  0  0999 V2000
  -21.0251   -5.1366  -29.5158 C   0  0  0  0  0  0  0  0  0  0  0  0
  -21.7975   -4.3655  -30.3870 C   0  0  0  0  0  0  0  0  0  0  0  0
  -21.1249   -4.8965  -28.1242 C   0  0  0  0  0  0  0  0  0  0  0  0
  -22.0064   -3.9328  -27.5797 C   0  0  0  0  0  0  0  0  0  0  0  0
  -22.6289   -3.4058  -29.8526 C   0  0  0  0  0  0  0  0  0  0  0  0
  -22.7631   -3.1544  -28.4870 C   0  0  0  0  0  0  0  0  0  0  0  0
  -22.0033   -4.2524  -31.7746 C   0  0  0  0  0  0  0  0  0  0  0  0
  -18.9095   -3.8202  -26.2671 C   0  0  0  0  0  0  0  0  0  0  0  0
  -19.2350   -6.0323  -25.0414 C   0  0  0  0  0  0  0  0  0  0  0  0
  -17.0619   -5.1684  -25.8802 C   0  0  0  0  0  0  0  0  0  0  0  0
  -20.2676   -5.7304  -27.2102 C   0  0  0  0  0  0  0  0  0  0  0  0
  -19.3060   -6.3089  -33.3001 C   0  0  0  0  0  0  0  0  0  0  0  0
  -21.3375   -6.2567  -34.8365 C   0  0  0  0  0  0  0  0  0  0  0  0
  -20.3765   -6.0770  -32.2334 C   0  0  0  0  0  0  0  0  0  0  0  0
  -21.5668   -4.9200  -34.1305 C   0  0  0  0  0  0  0  0  0  0  0  0
  -23.0557   -2.7967  -25.6326 C   0  0  0  0  0  0  0  0  0  0  0  0
  -19.3733   -8.5784  -35.9043 C   0  0  0  0  0  0  0  0  0  0  0  0
  -18.3910   -7.4716  -36.1664 C   0  0  0  0  0  0  0  0  0  0  0  0
  -21.2020   -4.4640  -25.2440 C   0  0  2  0  0  0  0  0  0  0  0  0
  -23.4117   -3.1178  -24.1780 C   0  0  1  0  0  0  0  0  0  0  0  0
  -21.0330   -3.5309  -24.0090 C   0  0  2  0  0  0  0  0  0  0  0  0
  -19.8837   -4.9694  -25.9172 C   0  0  2  0  0  0  0  0  0  0  0  0
  -19.9113   -6.7788  -34.6279 C   0  0  0  0  0  0  0  0  0  0  0  0
  -24.3939   -4.2813  -24.0568 C   0  0  0  0  0  0  0  0  0  0  0  0
  -20.0623   -4.0023  -22.9335 C   0  0  0  0  0  0  0  0  0  0  0  0
  -22.8883   -3.2987  -32.0797 N   0  0  0  0  0  0  0  0  0  0  0  0
  -17.6499   -4.1679  -26.5373 N   0  5  0  0  0  0  0  0  0  0  0  0
  -17.8561   -6.0177  -25.1119 N   0  0  0  0  0  0  0  0  0  0  0  0
  -22.1021   -3.7601  -26.1967 N   0  0  3  0  0  0  0  0  0  0  0  0
  -21.3337   -5.0624  -32.6889 N   0  0  0  0  0  0  0  0  0  0  0  0
  -19.3202   -2.6674  -26.3981 O   0  0  0  0  0  0  0  0  0  0  0  0
  -19.8634   -6.8699  -24.3980 O   0  0  0  0  0  0  0  0  0  0  0  0
  -15.8487   -5.3861  -25.9381 O   0  0  0  0  0  0  0  0  0  0  0  0
  -23.2816   -2.7624  -30.8591 O   0  0  0  0  0  0  0  0  0  0  0  0
  -19.9419   -8.2183  -34.6466 O   0  0  0  0  0  0  0  0  0  0  0  0
  -19.0776   -6.3098  -35.7043 O   0  0  0  0  0  0  0  0  0  0  0  0
  -22.2914   -3.3818  -23.3385 O   0  0  0  0  0  0  0  0  0  0  0  0
  -23.5255   -2.1207  -28.1106 F   0  0  0  0  0  0  0  0  0  0  0  0
  -20.3531   -5.8994  -29.8986 H   0  0  0  0  0  0  0  0  0  0  0  0
  -20.8274   -6.6452  -26.9720 H   0  0  0  0  0  0  0  0  0  0  0  0
  -19.3620   -6.0505  -27.7424 H   0  0  0  0  0  0  0  0  0  0  0  0
  -18.7289   -5.3891  -33.4576 H   0  0  0  0  0  0  0  0  0  0  0  0
  -18.5936   -7.0567  -32.9315 H   0  0  0  0  0  0  0  0  0  0  0  0
  -22.0593   -6.9875  -34.4544 H   0  0  0  0  0  0  0  0  0  0  0  0
  -21.5430   -6.1536  -35.9087 H   0  0  0  0  0  0  0  0  0  0  0  0
  -20.9087   -7.0104  -32.0167 H   0  0  0  0  0  0  0  0  0  0  0  0
  -19.8854   -5.7570  -31.3067 H   0  0  0  0  0  0  0  0  0  0  0  0
  -20.8877   -4.1744  -34.5595 H   0  0  0  0  0  0  0  0  0  0  0  0
  -22.5906   -4.5687  -34.3018 H   0  0  0  0  0  0  0  0  0  0  0  0
  -23.9728   -2.8379  -26.2557 H   0  0  0  0  0  0  0  0  0  0  0  0
  -22.7443   -1.7413  -25.6739 H   0  0  0  0  0  0  0  0  0  0  0  0
  -20.1479   -8.6622  -36.6701 H   0  0  0  0  0  0  0  0  0  0  0  0
  -18.8716   -9.5449  -35.7879 H   0  0  0  0  0  0  0  0  0  0  0  0
  -17.4430   -7.5974  -35.6380 H   0  0  0  0  0  0  0  0  0  0  0  0
  -18.1964   -7.3494  -37.2373 H   0  0  0  0  0  0  0  0  0  0  0  0
  -21.7736   -5.3444  -24.9086 H   0  0  0  0  0  0  0  0  0  0  0  0
  -23.9555   -2.2136  -23.7333 H   0  0  0  0  0  0  0  0  0  0  0  0
  -20.7052   -2.5221  -24.3183 H   0  0  0  0  0  0  0  0  0  0  0  0
  -23.9480   -5.1898  -24.4621 H   0  0  0  0  0  0  0  0  0  0  0  0
  -25.3064   -4.0584  -24.6098 H   0  0  0  0  0  0  0  0  0  0  0  0
  -24.6468   -4.4485  -23.0096 H   0  0  0  0  0  0  0  0  0  0  0  0
  -20.3409   -4.9988  -22.5906 H   0  0  0  0  0  0  0  0  0  0  0  0
  -20.0841   -3.3176  -22.0857 H   0  0  0  0  0  0  0  0  0  0  0  0
  -19.0493   -4.0366  -23.3347 H   0  0  0  0  0  0  0  0  0  0  0  0
  -17.3670   -6.7008  -24.5413 H   0  0  0  0  0  0  0  0  0  0  0  0
  1  2  2  0  0  0  0
  1  3  1  0  0  0  0
  2  5  1  0  0  0  0
  2  7  1  0  0  0  0
  3  4  2  0  0  0  0
  3 11  1  0  0  0  0
  4  6  1  0  0  0  0
  4 29  1  0  0  0  0
  5  6  2  0  0  0  0
  5 34  1  0  0  0  0
  6 38  1  0  0  0  0
  7 26  2  0  0  0  0
  7 30  1  0  0  0  0
  8 22  1  0  0  0  0
  8 27  1  0  0  0  0
  8 31  2  0  0  0  0
  9 22  1  0  0  0  0
  9 28  1  0  0  0  0
  9 32  2  0  0  0  0
 10 27  1  0  0  0  0
 10 28  1  0  0  0  0
 10 33  2  0  0  0  0
 11 22  1  0  0  0  0
 12 14  1  0  0  0  0
 12 23  1  0  0  0  0
 13 15  1  0  0  0  0
 13 23  1  0  0  0  0
 14 30  1  0  0  0  0
 15 30  1  0  0  0  0
 16 20  1  0  0  0  0
 16 29  1  0  0  0  0
 17 18  1  0  0  0  0
 17 35  1  0  0  0  0
 18 36  1  0  0  0  0
 19 21  1  0  0  0  0
 19 22  1  0  0  0  0
 19 29  1  0  0  0  0
 20 24  1  0  0  0  0
 20 37  1  0  0  0  0
 21 25  1  0  0  0  0
 21 37  1  0  0  0  0
 23 35  1  0  0  0  0
 23 36  1  0  0  0  0
 26 34  1  0  0  0  0
  1 39  1  0  0  0  0
 11 40  1  0  0  0  0
 11 41  1  0  0  0  0
 12 42  1  0  0  0  0
 12 43  1  0  0  0  0
 13 44  1  0  0  0  0
 13 45  1  0  0  0  0
 14 46  1  0  0  0  0
 14 47  1  0  0  0  0
 15 48  1  0  0  0  0
 15 49  1  0  0  0  0
 16 50  1  0  0  0  0
 16 51  1  0  0  0  0
 17 52  1  0  0  0  0
 17 53  1  0  0  0  0
 18 54  1  0  0  0  0
 18 55  1  0  0  0  0
 19 56  1  0  0  0  0
 20 57  1  0  0  0  0
 21 58  1  0  0  0  0
 24 59  1  0  0  0  0
 24 60  1  0  0  0  0
 24 61  1  0  0  0  0
 25 62  1  0  0  0  0
 25 63  1  0  0  0  0
 25 64  1  0  0  0  0
 28 65  1  0  0  0  0
M  CHG  1  27  -1
M  END
> <SMILES>
C[C@@H]1CN2[C@H]([C@H](C)O1)C1(Cc3cc4c(noc4c(c32)F)N2CCC3(CC2)OCCO3)C(=O)NC(=O)NC1=O

> <FORMATTED_ID>
H3D-004273

> <MOLFORMULA>
C25H28FN5O7

> <Exact Mass>
529.2

> <XLogP>
0.91

> <TPSA_NOPS>
135.8

> <s_m_source_file>
ligprep_h3d.sdf

> <i_m_source_file_index>
559

> <i_lp_mmshare_version>
55123

> <i_f3d_flags>
0

> <s_epik_input>
Tz1DMVtOSF1DKD1PKVtOSF1DKD1PKUMxMltDQEBIXTNOKFtDSDJdW0NAQEhdKFtDSDNdKU9bQ0BIXTNbQ0gzXSljNGMoW0NIMl0yKVtjSF1jNWMoYzRGKW9uYzVOKFtDSDJdW0NIMl02KVtDSDJdW0NIMl1DNjdPW0NIMl1bQ0gyXU83

> <s_epik_cmdline>
J2VwaWtfcHl0aG9uJywgJy1waHQnLCAnMC41JywgJy1waCcsICc3LjUnLCAnLXRuJywgJzgnLCAnLW1hJywgJzUwMCcsICctaW1hZScsICc8aW5maWxlLm1hZT4nLCAnLW9tYWUnLCAnPG91dGZpbGUubWFlPic=

> <r_lp_tautomer_probability>
1

> <r_epik_Ionization_Penalty>
0.455388

> <r_epik_Ionization_Penalty_Charging>
0.455373

> <r_epik_Ionization_Penalty_Neutral>
1.47832e-05

> <r_epik_State_Penalty>
0.458483

> <r_epik_Charging_Adjusted_Penalty>
0.913857

> <i_epik_Tot_Q>
-1

> <i_epik_Tot_abs_Q>
1

> <s_lp_Force_Field>
S-OPLS

> <r_lp_Energy>
51.3775

> <b_lp_Chiralities_Consistent>
1

> <s_lp_Variant>
ligprep_h3d.sdf:559-2

> <ROCS_ShapeQuery>
_7L13

> <ROCS_TanimotoCombo>
0.783 

> <ROCS_ShapeTanimoto>
0.664 

> <ROCS_ColorTanimoto>
0.119 

> <ROCS_RefTversky>
0.831 

> <ROCS_RefColorTversky>
0.295 

> <ROCS_RefTverskyCombo>
1.126 

> <ROCS_FitTversky>
0.768 

> <ROCS_FitColorTversky>
0.167 

> <ROCS_FitTverskyCombo>
0.934 

> <ROCS_ColorScore>
-2.772

> <ROCS_Overlap>
1386.623

> <ROCS_Rank>
22                  

$$$$
ligprep_h3d.sdf:5341_1303
  -OEChem-08212117123D

 76 81  0     0  0  0  0  0  0999 V2000
  -20.8787   -6.4779  -33.6020 C   0  0  0  0  0  0  0  0  0  0  0  0
  -20.0079   -4.2436  -33.3073 C   0  0  0  0  0  0  0  0  0  0  0  0
  -19.9102   -6.7271  -34.5743 C   0  0  0  0  0  0  0  0  0  0  0  0
  -19.0394   -4.4928  -34.2796 C   0  0  0  0  0  0  0  0  0  0  0  0
  -23.7086   -4.1166  -28.0889 C   0  0  0  0  0  0  0  0  0  0  0  0
  -20.9664   -4.3808  -28.6738 C   0  0  0  0  0  0  0  0  0  0  0  0
  -15.1761   -5.1431  -25.8500 C   0  0  0  0  0  0  0  0  0  0  0  0
  -15.0676   -6.4098  -25.3387 C   0  0  0  0  0  0  0  0  0  0  0  0
  -22.7829   -4.3613  -27.0816 C   0  0  0  0  0  0  0  0  0  0  0  0
  -20.9276   -5.2361  -32.9685 C   0  0  0  0  0  0  0  0  0  0  0  0
  -21.4180   -4.4956  -27.3640 C   0  0  0  0  0  0  0  0  0  0  0  0
  -23.2548   -4.0102  -29.4029 C   0  0  0  0  0  0  0  0  0  0  0  0
  -21.8917   -4.1405  -29.6934 C   0  0  0  0  0  0  0  0  0  0  0  0
  -18.9905   -5.7346  -34.9131 C   0  0  0  0  0  0  0  0  0  0  0  0
  -17.2183   -5.9682  -25.5914 C   0  0  0  0  0  0  0  0  0  0  0  0
  -18.7053   -5.9826  -25.6373 C   0  0  0  0  0  0  0  0  0  0  0  0
  -18.4735   -3.7355  -26.5284 C   0  0  0  0  0  0  0  0  0  0  0  0
  -17.1280   -3.7491  -26.4766 C   0  0  0  0  0  0  0  0  0  0  0  0
  -19.3128   -4.8697  -26.1034 C   0  0  0  0  0  0  0  0  0  0  0  0
  -25.9511   -3.9791  -22.5642 C   0  0  0  0  0  0  0  0  0  0  0  0
  -23.3828   -3.0870  -25.0062 C   0  0  0  0  0  0  0  0  0  0  0  0
  -24.1182   -5.4937  -25.2468 C   0  0  0  0  0  0  0  0  0  0  0  0
  -23.7484   -3.1499  -23.5214 C   0  0  0  0  0  0  0  0  0  0  0  0
  -24.4240   -5.5183  -23.7509 C   0  0  0  0  0  0  0  0  0  0  0  0
  -21.6143   -4.9493  -25.1095 C   0  0  0  0  0  0  0  0  0  0  0  0
  -23.0209   -4.4689  -25.5945 C   0  0  0  0  0  0  0  0  0  0  0  0
  -26.4296   -3.4252  -19.7059 C   0  0  0  0  0  0  0  0  0  0  0  0
  -27.3357   -1.1886  -20.3204 C   0  0  0  0  0  0  0  0  0  0  0  0
  -24.4237   -2.4062  -30.7132 C   0  0  0  0  0  0  0  0  0  0  0  0
  -21.9687   -4.9676  -31.9218 C   0  0  0  0  0  0  0  0  0  0  0  0
  -26.2013   -2.5875  -22.0400 C   0  0  0  0  0  0  0  0  0  0  0  0
  -16.5235   -4.8898  -25.9990 N   0  0  0  0  0  0  0  0  0  0  0  0
  -16.3457   -6.8958  -25.1893 N   0  3  0  0  0  0  0  0  0  0  0  0
  -20.6581   -4.7364  -26.2028 N   0  0  0  0  0  0  0  0  0  0  0  0
  -24.7609   -4.1798  -23.2644 N   0  0  0  0  0  0  0  0  0  0  0  0
  -27.0219   -2.5833  -20.8138 N   0  3  0  0  0  0  0  0  0  0  0  0
  -26.7906   -4.8596  -22.3585 O   0  0  0  0  0  0  0  0  0  0  0  0
  -24.1517   -3.7707  -30.4009 O   0  0  0  0  0  0  0  0  0  0  0  0
  -21.4506   -4.0320  -30.9793 O   0  0  0  0  0  0  0  0  0  0  0  0
  -18.0587   -5.9747  -35.8450 F   0  0  0  0  0  0  0  0  0  0  0  0
  -21.5915   -7.2572  -33.3453 H   0  0  0  0  0  0  0  0  0  0  0  0
  -20.0382   -3.2732  -32.8188 H   0  0  0  0  0  0  0  0  0  0  0  0
  -19.8716   -7.6939  -35.0671 H   0  0  0  0  0  0  0  0  0  0  0  0
  -18.3235   -3.7203  -34.5440 H   0  0  0  0  0  0  0  0  0  0  0  0
  -24.7630   -3.9993  -27.8599 H   0  0  0  0  0  0  0  0  0  0  0  0
  -19.9136   -4.4796  -28.9191 H   0  0  0  0  0  0  0  0  0  0  0  0
  -14.4740   -4.3809  -26.1305 H   0  0  0  0  0  0  0  0  0  0  0  0
  -14.2579   -7.0516  -25.0530 H   0  0  0  0  0  0  0  0  0  0  0  0
  -19.2439   -6.8611  -25.3043 H   0  0  0  0  0  0  0  0  0  0  0  0
  -18.9788   -2.8487  -26.9007 H   0  0  0  0  0  0  0  0  0  0  0  0
  -16.5027   -2.9217  -26.7860 H   0  0  0  0  0  0  0  0  0  0  0  0
  -24.2378   -2.6631  -25.5508 H   0  0  0  0  0  0  0  0  0  0  0  0
  -22.5548   -2.3797  -25.1441 H   0  0  0  0  0  0  0  0  0  0  0  0
  -23.8289   -6.4991  -25.5782 H   0  0  0  0  0  0  0  0  0  0  0  0
  -25.0459   -5.2546  -25.7834 H   0  0  0  0  0  0  0  0  0  0  0  0
  -22.8730   -3.4043  -22.9139 H   0  0  0  0  0  0  0  0  0  0  0  0
  -24.0798   -2.1620  -23.1961 H   0  0  0  0  0  0  0  0  0  0  0  0
  -25.2411   -6.2204  -23.5565 H   0  0  0  0  0  0  0  0  0  0  0  0
  -23.5562   -5.8662  -23.1789 H   0  0  0  0  0  0  0  0  0  0  0  0
  -21.2859   -4.4229  -24.2063 H   0  0  0  0  0  0  0  0  0  0  0  0
  -21.6286   -6.0210  -24.8703 H   0  0  0  0  0  0  0  0  0  0  0  0
  -25.4593   -2.9989  -19.4449 H   0  0  0  0  0  0  0  0  0  0  0  0
  -27.1150   -3.3903  -18.8569 H   0  0  0  0  0  0  0  0  0  0  0  0
  -26.3221   -4.4444  -20.0820 H   0  0  0  0  0  0  0  0  0  0  0  0
  -26.3905   -0.7002  -20.0764 H   0  0  0  0  0  0  0  0  0  0  0  0
  -27.8556   -0.6598  -21.1215 H   0  0  0  0  0  0  0  0  0  0  0  0
  -27.9689   -1.2817  -19.4360 H   0  0  0  0  0  0  0  0  0  0  0  0
  -25.1538   -2.3559  -31.5246 H   0  0  0  0  0  0  0  0  0  0  0  0
  -23.4975   -1.9081  -31.0108 H   0  0  0  0  0  0  0  0  0  0  0  0
  -24.8319   -1.9134  -29.8277 H   0  0  0  0  0  0  0  0  0  0  0  0
  -22.8786   -4.5553  -32.3711 H   0  0  0  0  0  0  0  0  0  0  0  0
  -22.2403   -5.8911  -31.3992 H   0  0  0  0  0  0  0  0  0  0  0  0
  -26.7346   -2.0101  -22.7891 H   0  0  0  0  0  0  0  0  0  0  0  0
  -25.2531   -2.1154  -21.8028 H   0  0  0  0  0  0  0  0  0  0  0  0
  -16.5875   -7.8151  -24.8296 H   0  0  0  0  0  0  0  0  0  0  0  0
  -27.9383   -3.0153  -21.0349 H   0  0  0  0  0  0  0  0  0  0  0  0
  1  3  1  0  0  0  0
  1 10  2  0  0  0  0
  2  4  2  0  0  0  0
  2 10  1  0  0  0  0
  3 14  2  0  0  0  0
  4 14  1  0  0  0  0
  5  9  1  0  0  0  0
  5 12  2  0  0  0  0
  6 11  1  0  0  0  0
  6 13  2  0  0  0  0
  7  8  2  0  0  0  0
  7 32  1  0  0  0  0
  8 33  1  0  0  0  0
  9 11  2  0  0  0  0
  9 26  1  0  0  0  0
 10 30  1  0  0  0  0
 11 34  1  0  0  0  0
 12 13  1  0  0  0  0
 12 38  1  0  0  0  0
 13 39  1  0  0  0  0
 14 40  1  0  0  0  0
 15 16  1  0  0  0  0
 15 32  1  0  0  0  0
 15 33  2  0  0  0  0
 16 19  2  0  0  0  0
 17 18  2  0  0  0  0
 17 19  1  0  0  0  0
 18 32  1  0  0  0  0
 19 34  1  0  0  0  0
 20 31  1  0  0  0  0
 20 35  1  0  0  0  0
 20 37  2  0  0  0  0
 21 23  1  0  0  0  0
 21 26  1  0  0  0  0
 22 24  1  0  0  0  0
 22 26  1  0  0  0  0
 23 35  1  0  0  0  0
 24 35  1  0  0  0  0
 25 26  1  0  0  0  0
 25 34  1  0  0  0  0
 27 36  1  0  0  0  0
 28 36  1  0  0  0  0
 29 38  1  0  0  0  0
 30 39  1  0  0  0  0
 31 36  1  0  0  0  0
  1 41  1  0  0  0  0
  2 42  1  0  0  0  0
  3 43  1  0  0  0  0
  4 44  1  0  0  0  0
  5 45  1  0  0  0  0
  6 46  1  0  0  0  0
  7 47  1  0  0  0  0
  8 48  1  0  0  0  0
 16 49  1  0  0  0  0
 17 50  1  0  0  0  0
 18 51  1  0  0  0  0
 21 52  1  0  0  0  0
 21 53  1  0  0  0  0
 22 54  1  0  0  0  0
 22 55  1  0  0  0  0
 23 56  1  0  0  0  0
 23 57  1  0  0  0  0
 24 58  1  0  0  0  0
 24 59  1  0  0  0  0
 25 60  1  0  0  0  0
 25 61  1  0  0  0  0
 27 62  1  0  0  0  0
 27 63  1  0  0  0  0
 27 64  1  0  0  0  0
 28 65  1  0  0  0  0
 28 66  1  0  0  0  0
 28 67  1  0  0  0  0
 29 68  1  0  0  0  0
 29 69  1  0  0  0  0
 29 70  1  0  0  0  0
 30 71  1  0  0  0  0
 30 72  1  0  0  0  0
 31 73  1  0  0  0  0
 31 74  1  0  0  0  0
 33 75  1  0  0  0  0
 36 76  1  0  0  0  0
M  CHG  2  33   1  36   1
M  END
> <SMILES>
COc1cc2c(cc1OCc1ccc(cc1)F)N(CC12CCN(CC1)C(=O)CN(C)C)c1ccn2ccnc2c1

> <FORMATTED_ID>
H3D-014969

> <MOLFORMULA>
C31H34FN5O3

> <Exact Mass>
543.26

> <XLogP>
5.9

> <TPSA_NOPS>
62.5

> <s_m_source_file>
ligprep_h3d.sdf

> <i_m_source_file_index>
5341

> <i_lp_mmshare_version>
55123

> <i_f3d_flags>
0

> <s_epik_input>
W2NIXTFbY0hdYyhGKVtjSF1bY0hdYzFbQ0gyXU9jKGMoW2NIXTIpT1tDSDNdKVtjSF1jKE4oW0NIMl0zKWMoW2NIXVtjSF00KVtjSF1jKG40NSluW2NIXVtjSF01KWMyQzM2W0NIMl1bQ0gyXU4oW0NIMl1bQ0gyXTYpQyg9TylbQ0gyXU4oW0NIM10pW0NIM10=

> <s_epik_cmdline>
J2VwaWtfcHl0aG9uJywgJy1waHQnLCAnMC41JywgJy1waCcsICc3LjUnLCAnLXRuJywgJzgnLCAnLW1hJywgJzUwMCcsICctaW1hZScsICc8aW5maWxlLm1hZT4nLCAnLW9tYWUnLCAnPG91dGZpbGUubWFlPic=

> <r_lp_tautomer_probability>
1

> <r_epik_Ionization_Penalty>
0.443819

> <r_epik_Ionization_Penalty_Charging>
0.106153

> <r_epik_Ionization_Penalty_Neutral>
0.337666

> <r_epik_State_Penalty>
0.427847

> <r_epik_Charging_Adjusted_Penalty>
0.533999

> <i_epik_Tot_Q>
2

> <i_epik_Tot_abs_Q>
2

> <s_lp_Force_Field>
S-OPLS

> <r_lp_Energy>
78.3161

> <b_lp_Chiralities_Consistent>
1

> <s_lp_Variant>
ligprep_h3d.sdf:5341-1

> <ROCS_ShapeQuery>
_7L13

> <ROCS_TanimotoCombo>
0.754 

> <ROCS_ShapeTanimoto>
0.652 

> <ROCS_ColorTanimoto>
0.102 

> <ROCS_RefTversky>
0.830 

> <ROCS_RefColorTversky>
0.223 

> <ROCS_RefTverskyCombo>
1.052 

> <ROCS_FitTversky>
0.752 

> <ROCS_FitColorTversky>
0.160 

> <ROCS_FitTverskyCombo>
0.912 

> <ROCS_ColorScore>
-2.049

> <ROCS_Overlap>
1385.726

> <ROCS_Rank>
23                  

$$$$
ligprep_h3d.sdf:5432_1764
  -OEChem-08212117123D

 81 87  0     0  0  0  0  0  0999 V2000
  -20.2079   -7.0032  -33.2455 C   0  0  0  0  0  0  0  0  0  0  0  0
  -18.5676   -5.6522  -34.3949 C   0  0  0  0  0  0  0  0  0  0  0  0
  -20.6228   -7.5374  -34.4654 C   0  0  0  0  0  0  0  0  0  0  0  0
  -18.9824   -6.1864  -35.6148 C   0  0  0  0  0  0  0  0  0  0  0  0
  -22.3520   -4.1686  -29.3162 C   0  0  0  0  0  0  0  0  0  0  0  0
  -19.5511   -4.4549  -29.2403 C   0  0  0  0  0  0  0  0  0  0  0  0
  -14.5822   -5.2449  -25.1475 C   0  0  0  0  0  0  0  0  0  0  0  0
  -14.6934   -6.4345  -24.4764 C   0  0  0  0  0  0  0  0  0  0  0  0
  -21.6796   -4.3046  -28.1076 C   0  0  0  0  0  0  0  0  0  0  0  0
  -19.1803   -6.0606  -33.2102 C   0  0  0  0  0  0  0  0  0  0  0  0
  -20.2871   -4.4455  -28.0609 C   0  0  0  0  0  0  0  0  0  0  0  0
  -21.6113   -4.1692  -30.4974 C   0  0  0  0  0  0  0  0  0  0  0  0
  -20.2194   -4.3127  -30.4597 C   0  0  0  0  0  0  0  0  0  0  0  0
  -20.0101   -7.1290  -35.6500 C   0  0  0  0  0  0  0  0  0  0  0  0
  -16.6967   -5.9064  -25.2462 C   0  0  0  0  0  0  0  0  0  0  0  0
  -18.1364   -5.8399  -25.6152 C   0  0  0  0  0  0  0  0  0  0  0  0
  -17.5292   -3.7523  -26.6971 C   0  0  0  0  0  0  0  0  0  0  0  0
  -16.2310   -3.8374  -26.3500 C   0  0  0  0  0  0  0  0  0  0  0  0
  -18.5339   -4.7672  -26.3336 C   0  0  0  0  0  0  0  0  0  0  0  0
  -23.8514   -3.3145  -25.0294 C   0  0  0  0  0  0  0  0  0  0  0  0
  -23.6890   -5.8383  -25.1578 C   0  0  0  0  0  0  0  0  0  0  0  0
  -23.1988   -3.1973  -26.4079 C   0  0  0  0  0  0  0  0  0  0  0  0
  -22.9964   -5.7258  -26.5191 C   0  0  0  0  0  0  0  0  0  0  0  0
  -26.7096   -5.9011  -21.9711 C   0  0  0  0  0  0  0  0  0  0  0  0
  -26.1409   -3.5867  -21.5619 C   0  0  0  0  0  0  0  0  0  0  0  0
  -20.9538   -4.3106  -25.8561 C   0  0  0  0  0  0  0  0  0  0  0  0
  -26.2357   -5.7986  -23.4170 C   0  0  0  0  0  0  0  0  0  0  0  0
  -25.6504   -3.4170  -22.9959 C   0  0  0  0  0  0  0  0  0  0  0  0
  -24.5966   -4.6394  -24.8999 C   0  0  0  0  0  0  0  0  0  0  0  0
  -22.2591   -4.3810  -26.7143 C   0  0  0  0  0  0  0  0  0  0  0  0
  -27.6863   -4.7273  -20.1073 C   0  0  0  0  0  0  0  0  0  0  0  0
  -23.6760   -3.8945  -31.6452 C   0  0  0  0  0  0  0  0  0  0  0  0
  -18.7330   -5.4862  -31.8982 C   0  0  0  0  0  0  0  0  0  0  0  0
  -15.8412   -4.9359  -25.6179 N   0  0  0  0  0  0  0  0  0  0  0  0
  -16.0115   -6.8201  -24.5539 N   0  3  0  0  0  0  0  0  0  0  0  0
  -19.8116   -4.5702  -26.7411 N   0  0  0  0  0  0  0  0  0  0  0  0
  -27.1961   -4.6051  -21.4798 N   0  0  0  0  0  0  0  0  0  0  0  0
  -25.1595   -4.7465  -23.5112 N   0  3  0  0  0  0  0  0  0  0  0  0
  -22.2579   -4.0359  -31.6900 O   0  0  0  0  0  0  0  0  0  0  0  0
  -19.4982   -4.3167  -31.6172 O   0  0  0  0  0  0  0  0  0  0  0  0
  -20.4066   -7.6438  -36.8213 F   0  0  0  0  0  0  0  0  0  0  0  0
  -20.6919   -7.3270  -32.3278 H   0  0  0  0  0  0  0  0  0  0  0  0
  -17.7659   -4.9185  -34.3771 H   0  0  0  0  0  0  0  0  0  0  0  0
  -21.4223   -8.2716  -34.4929 H   0  0  0  0  0  0  0  0  0  0  0  0
  -18.5060   -5.8684  -36.5374 H   0  0  0  0  0  0  0  0  0  0  0  0
  -23.4329   -4.0743  -29.3447 H   0  0  0  0  0  0  0  0  0  0  0  0
  -18.4711   -4.5641  -29.2313 H   0  0  0  0  0  0  0  0  0  0  0  0
  -13.7736   -4.5703  -25.3566 H   0  0  0  0  0  0  0  0  0  0  0  0
  -14.0204   -7.0776  -23.9449 H   0  0  0  0  0  0  0  0  0  0  0  0
  -18.8068   -6.6320  -25.3055 H   0  0  0  0  0  0  0  0  0  0  0  0
  -17.8665   -2.8964  -27.2751 H   0  0  0  0  0  0  0  0  0  0  0  0
  -15.4855   -3.0978  -26.6118 H   0  0  0  0  0  0  0  0  0  0  0  0
  -23.0830   -3.2282  -24.2512 H   0  0  0  0  0  0  0  0  0  0  0  0
  -24.5447   -2.4765  -24.8887 H   0  0  0  0  0  0  0  0  0  0  0  0
  -24.2743   -6.7656  -25.1307 H   0  0  0  0  0  0  0  0  0  0  0  0
  -22.9337   -5.9211  -24.3672 H   0  0  0  0  0  0  0  0  0  0  0  0
  -23.9960   -3.1445  -27.1611 H   0  0  0  0  0  0  0  0  0  0  0  0
  -22.6573   -2.2449  -26.4757 H   0  0  0  0  0  0  0  0  0  0  0  0
  -22.3040   -6.5690  -26.6414 H   0  0  0  0  0  0  0  0  0  0  0  0
  -23.7591   -5.8450  -27.3009 H   0  0  0  0  0  0  0  0  0  0  0  0
  -27.5214   -6.6376  -21.9332 H   0  0  0  0  0  0  0  0  0  0  0  0
  -25.8966   -6.2834  -21.3396 H   0  0  0  0  0  0  0  0  0  0  0  0
  -25.2968   -3.8409  -20.9069 H   0  0  0  0  0  0  0  0  0  0  0  0
  -26.5344   -2.6211  -21.2219 H   0  0  0  0  0  0  0  0  0  0  0  0
  -20.8275   -3.3110  -25.4191 H   0  0  0  0  0  0  0  0  0  0  0  0
  -20.9644   -5.0247  -25.0252 H   0  0  0  0  0  0  0  0  0  0  0  0
  -25.7964   -6.7439  -23.7471 H   0  0  0  0  0  0  0  0  0  0  0  0
  -27.0458   -5.5096  -24.0941 H   0  0  0  0  0  0  0  0  0  0  0  0
  -26.4471   -3.0736  -23.6634 H   0  0  0  0  0  0  0  0  0  0  0  0
  -24.8077   -2.7215  -23.0357 H   0  0  0  0  0  0  0  0  0  0  0  0
  -25.4571   -4.6606  -25.5784 H   0  0  0  0  0  0  0  0  0  0  0  0
  -28.0458   -3.7483  -19.7573 H   0  0  0  0  0  0  0  0  0  0  0  0
  -28.5119   -5.4534  -20.0762 H   0  0  0  0  0  0  0  0  0  0  0  0
  -26.8698   -5.0722  -19.4558 H   0  0  0  0  0  0  0  0  0  0  0  0
  -24.0655   -3.7973  -32.6615 H   0  0  0  0  0  0  0  0  0  0  0  0
  -23.9365   -3.0106  -31.0576 H   0  0  0  0  0  0  0  0  0  0  0  0
  -24.1071   -4.7818  -31.1755 H   0  0  0  0  0  0  0  0  0  0  0  0
  -18.8728   -6.2081  -31.0864 H   0  0  0  0  0  0  0  0  0  0  0  0
  -17.6709   -5.2207  -31.9332 H   0  0  0  0  0  0  0  0  0  0  0  0
  -16.4021   -7.6661  -24.1482 H   0  0  0  0  0  0  0  0  0  0  0  0
  -24.3874   -5.0456  -22.8978 H   0  0  0  0  0  0  0  0  0  0  0  0
  1  3  1  0  0  0  0
  1 10  2  0  0  0  0
  2  4  2  0  0  0  0
  2 10  1  0  0  0  0
  3 14  2  0  0  0  0
  4 14  1  0  0  0  0
  5  9  1  0  0  0  0
  5 12  2  0  0  0  0
  6 11  1  0  0  0  0
  6 13  2  0  0  0  0
  7  8  2  0  0  0  0
  7 34  1  0  0  0  0
  8 35  1  0  0  0  0
  9 11  2  0  0  0  0
  9 30  1  0  0  0  0
 10 33  1  0  0  0  0
 11 36  1  0  0  0  0
 12 13  1  0  0  0  0
 12 39  1  0  0  0  0
 13 40  1  0  0  0  0
 14 41  1  0  0  0  0
 15 16  1  0  0  0  0
 15 34  1  0  0  0  0
 15 35  2  0  0  0  0
 16 19  2  0  0  0  0
 17 18  2  0  0  0  0
 17 19  1  0  0  0  0
 18 34  1  0  0  0  0
 19 36  1  0  0  0  0
 20 22  1  0  0  0  0
 20 29  1  0  0  0  0
 21 23  1  0  0  0  0
 21 29  1  0  0  0  0
 22 30  1  0  0  0  0
 23 30  1  0  0  0  0
 24 27  1  0  0  0  0
 24 37  1  0  0  0  0
 25 28  1  0  0  0  0
 25 37  1  0  0  0  0
 26 30  1  0  0  0  0
 26 36  1  0  0  0  0
 27 38  1  0  0  0  0
 28 38  1  0  0  0  0
 29 38  1  0  0  0  0
 31 37  1  0  0  0  0
 32 39  1  0  0  0  0
 33 40  1  0  0  0  0
  1 42  1  0  0  0  0
  2 43  1  0  0  0  0
  3 44  1  0  0  0  0
  4 45  1  0  0  0  0
  5 46  1  0  0  0  0
  6 47  1  0  0  0  0
  7 48  1  0  0  0  0
  8 49  1  0  0  0  0
 16 50  1  0  0  0  0
 17 51  1  0  0  0  0
 18 52  1  0  0  0  0
 20 53  1  0  0  0  0
 20 54  1  0  0  0  0
 21 55  1  0  0  0  0
 21 56  1  0  0  0  0
 22 57  1  0  0  0  0
 22 58  1  0  0  0  0
 23 59  1  0  0  0  0
 23 60  1  0  0  0  0
 24 61  1  0  0  0  0
 24 62  1  0  0  0  0
 25 63  1  0  0  0  0
 25 64  1  0  0  0  0
 26 65  1  0  0  0  0
 26 66  1  0  0  0  0
 27 67  1  0  0  0  0
 27 68  1  0  0  0  0
 28 69  1  0  0  0  0
 28 70  1  0  0  0  0
 29 71  1  0  0  0  0
 31 72  1  0  0  0  0
 31 73  1  0  0  0  0
 31 74  1  0  0  0  0
 32 75  1  0  0  0  0
 32 76  1  0  0  0  0
 32 77  1  0  0  0  0
 33 78  1  0  0  0  0
 33 79  1  0  0  0  0
 35 80  1  0  0  0  0
 38 81  1  0  0  0  0
M  CHG  2  35   1  38   1
M  END
> <SMILES>
COc1cc2c(cc1OCc1ccc(cc1)F)N(CC12CC[C@H](CC1)N1CCN(C)CC1)c1ccn2ccnc2c1

> <FORMATTED_ID>
H3D-015742

> <MOLFORMULA>
C33H38FN5O2

> <Exact Mass>
555.3

> <XLogP>
6.64

> <TPSA_NOPS>
45.5

> <s_m_source_file>
ligprep_h3d.sdf

> <i_m_source_file_index>
5432

> <i_lp_mmshare_version>
55123

> <i_f3d_flags>
0

> <s_epik_input>
W2NIXTFbY0hdYyhGKVtjSF1bY0hdYzFbQ0gyXU9jKGMoW2NIXTIpT1tDSDNdKVtjSF1jKE4oW0NIMl0zKWMoW2NIXVtjSF00KVtjSF1jKG40NSluW2NIXVtjSF01KWMyW0NAXTM2W0NIMl1bQ0gyXVtDQEhdKFtDSDJdW0NIMl02KU43W0NIMl1bQ0gyXU4oW0NIM10pW0NIMl1bQ0gyXTc=

> <s_epik_cmdline>
J2VwaWtfcHl0aG9uJywgJy1waHQnLCAnMC41JywgJy1waCcsICc3LjUnLCAnLXRuJywgJzgnLCAnLW1hJywgJzUwMCcsICctaW1hZScsICc8aW5maWxlLm1hZT4nLCAnLW9tYWUnLCAnPG91dGZpbGUubWFlPic=

> <r_lp_tautomer_probability>
1

> <r_epik_Ionization_Penalty>
0.33846

> <r_epik_Ionization_Penalty_Charging>
0.0012948

> <r_epik_Ionization_Penalty_Neutral>
0.337165

> <r_epik_State_Penalty>
0.331847

> <r_epik_Charging_Adjusted_Penalty>
0.333142

> <i_epik_Tot_Q>
2

> <i_epik_Tot_abs_Q>
2

> <s_lp_Force_Field>
S-OPLS

> <r_lp_Energy>
104.176

> <b_lp_Chiralities_Consistent>
1

> <s_lp_Variant>
ligprep_h3d.sdf:5432-1

> <ROCS_ShapeQuery>
_7L13

> <ROCS_TanimotoCombo>
0.706 

> <ROCS_ShapeTanimoto>
0.638 

> <ROCS_ColorTanimoto>
0.068 

> <ROCS_RefTversky>
0.829 

> <ROCS_RefColorTversky>
0.159 

> <ROCS_RefTverskyCombo>
0.989 

> <ROCS_FitTversky>
0.734 

> <ROCS_FitColorTversky>
0.107 

> <ROCS_FitTverskyCombo>
0.841 

> <ROCS_ColorScore>
-1.474

> <ROCS_Overlap>
1387.281

> <ROCS_Rank>
24                  

$$$$
ligprep_h3d.sdf:6861_1506
  -OEChem-08212117123D

 71 77  0     1  0  0  0  0  0999 V2000
  -17.8809   -3.7528  -25.8863 C   0  0  0  0  0  0  0  0  0  0  0  0
  -18.1363   -6.1398  -26.1590 C   0  0  0  0  0  0  0  0  0  0  0  0
  -16.5767   -3.9444  -25.4305 C   0  0  0  0  0  0  0  0  0  0  0  0
  -16.8320   -6.3314  -25.7032 C   0  0  0  0  0  0  0  0  0  0  0  0
  -23.6264   -4.0850  -28.3564 C   0  0  0  0  0  0  0  0  0  0  0  0
  -22.5173   -4.2979  -27.5167 C   0  0  0  0  0  0  0  0  0  0  0  0
  -18.6608   -4.8505  -26.2506 C   0  0  0  0  0  0  0  0  0  0  0  0
  -16.0522   -5.2337  -25.3389 C   0  0  0  0  0  0  0  0  0  0  0  0
  -21.4353   -4.3125  -28.3793 C   0  0  0  0  0  0  0  0  0  0  0  0
  -22.2502   -4.4809  -26.1641 C   0  0  0  0  0  0  0  0  0  0  0  0
  -20.0091   -4.6529  -26.7201 C   0  0  0  0  0  0  0  0  0  0  0  0
  -14.0433   -6.6348  -24.7211 C   0  0  0  0  0  0  0  0  0  0  0  0
  -19.8634   -4.8600  -30.8577 C   0  0  0  0  0  0  0  0  0  0  0  0
  -22.0276   -4.4846  -32.1304 C   0  0  0  0  0  0  0  0  0  0  0  0
  -26.1201   -4.0935  -24.2719 C   0  0  0  0  0  0  0  0  0  0  0  0
  -25.2869   -3.2116  -23.3584 C   0  0  0  0  0  0  0  0  0  0  0  0
  -19.0840   -4.7780  -32.1703 C   0  0  0  0  0  0  0  0  0  0  0  0
  -21.2383   -4.4057  -33.4375 C   0  0  0  0  0  0  0  0  0  0  0  0
  -24.3199   -5.5029  -25.3894 C   0  0  0  0  0  0  0  0  0  0  0  0
  -22.9348   -4.0364  -23.8704 C   0  0  0  0  0  0  0  0  0  0  0  0
  -19.4297   -7.2303  -34.2624 C   0  0  0  0  0  0  0  0  0  0  0  0
  -19.2993   -6.1742  -35.3240 C   0  0  0  0  0  0  0  0  0  0  0  0
  -21.1693   -4.0493  -30.9297 C   0  0  0  0  0  0  0  0  0  0  0  0
  -25.3703   -5.4203  -24.2768 C   0  0  1  0  0  0  0  0  0  0  0  0
  -24.1399   -4.1177  -22.9275 C   0  0  2  0  0  0  0  0  0  0  0  0
  -19.9316   -5.2020  -33.3732 C   0  0  0  0  0  0  0  0  0  0  0  0
  -11.8036   -7.4578  -23.9758 C   0  0  0  0  0  0  0  0  0  0  0  0
  -23.2848   -3.9732  -29.6448 N   0  0  0  0  0  0  0  0  0  0  0  0
  -20.1445   -4.4854  -28.0534 N   0  0  0  0  0  0  0  0  0  0  0  0
  -20.9686   -4.6616  -25.7643 N   0  0  0  0  0  0  0  0  0  0  0  0
  -21.9464   -4.1155  -29.6275 N   0  0  0  0  0  0  0  0  0  0  0  0
  -23.2891   -4.4811  -25.2169 N   0  0  0  0  0  0  0  0  0  0  0  0
  -14.7476   -5.4246  -24.8826 N   0  0  0  0  0  0  0  0  0  0  0  0
  -12.7523   -6.3999  -24.2371 N   0  0  0  0  0  0  0  0  0  0  0  0
  -14.4752   -7.7593  -24.9635 O   0  0  0  0  0  0  0  0  0  0  0  0
  -20.2447   -6.6034  -33.2737 O   0  0  0  0  0  0  0  0  0  0  0  0
  -19.1741   -4.9678  -34.5728 O   0  0  0  0  0  0  0  0  0  0  0  0
  -24.6805   -5.4421  -23.0204 O   0  0  0  0  0  0  0  0  0  0  0  0
  -18.2763   -2.7418  -25.9516 H   0  0  0  0  0  0  0  0  0  0  0  0
  -18.7317   -7.0058  -26.4381 H   0  0  0  0  0  0  0  0  0  0  0  0
  -15.9789   -3.0818  -25.1472 H   0  0  0  0  0  0  0  0  0  0  0  0
  -16.4338   -7.3406  -25.6340 H   0  0  0  0  0  0  0  0  0  0  0  0
  -24.6708   -4.0059  -28.0894 H   0  0  0  0  0  0  0  0  0  0  0  0
  -20.0844   -5.9095  -30.6232 H   0  0  0  0  0  0  0  0  0  0  0  0
  -19.2372   -4.4863  -30.0382 H   0  0  0  0  0  0  0  0  0  0  0  0
  -22.9186   -3.8488  -32.2034 H   0  0  0  0  0  0  0  0  0  0  0  0
  -22.3920   -5.5092  -31.9800 H   0  0  0  0  0  0  0  0  0  0  0  0
  -27.1164   -4.2272  -23.8343 H   0  0  0  0  0  0  0  0  0  0  0  0
  -26.2545   -3.6708  -25.2722 H   0  0  0  0  0  0  0  0  0  0  0  0
  -24.9493   -2.2894  -23.8412 H   0  0  0  0  0  0  0  0  0  0  0  0
  -25.8884   -2.9254  -22.4875 H   0  0  0  0  0  0  0  0  0  0  0  0
  -18.7157   -3.7548  -32.3186 H   0  0  0  0  0  0  0  0  0  0  0  0
  -18.1939   -5.4150  -32.0958 H   0  0  0  0  0  0  0  0  0  0  0  0
  -21.8664   -4.7836  -34.2538 H   0  0  0  0  0  0  0  0  0  0  0  0
  -21.0217   -3.3567  -33.6767 H   0  0  0  0  0  0  0  0  0  0  0  0
  -23.8445   -6.4915  -25.3428 H   0  0  0  0  0  0  0  0  0  0  0  0
  -24.8004   -5.4053  -26.3702 H   0  0  0  0  0  0  0  0  0  0  0  0
  -22.5410   -3.0132  -23.8937 H   0  0  0  0  0  0  0  0  0  0  0  0
  -22.1463   -4.6931  -23.4805 H   0  0  0  0  0  0  0  0  0  0  0  0
  -19.8947   -8.1520  -34.6208 H   0  0  0  0  0  0  0  0  0  0  0  0
  -18.4618   -7.4668  -33.8075 H   0  0  0  0  0  0  0  0  0  0  0  0
  -18.4332   -6.3172  -35.9747 H   0  0  0  0  0  0  0  0  0  0  0  0
  -20.2047   -6.1034  -35.9364 H   0  0  0  0  0  0  0  0  0  0  0  0
  -20.9255   -2.9708  -31.0261 H   0  0  0  0  0  0  0  0  0  0  0  0
  -26.0537   -6.2731  -24.3367 H   0  0  0  0  0  0  0  0  0  0  0  0
  -23.8294   -3.9180  -21.8971 H   0  0  0  0  0  0  0  0  0  0  0  0
  -11.9137   -7.8012  -22.9366 H   0  0  0  0  0  0  0  0  0  0  0  0
  -11.9926   -8.2972  -24.6611 H   0  0  0  0  0  0  0  0  0  0  0  0
  -10.7820   -7.0806  -24.1309 H   0  0  0  0  0  0  0  0  0  0  0  0
  -14.2205   -4.5825  -24.6286 H   0  0  0  0  0  0  0  0  0  0  0  0
  -12.4686   -5.4413  -24.0613 H   0  0  0  0  0  0  0  0  0  0  0  0
  1  3  1  0  0  0  0
  1  7  2  0  0  0  0
  2  4  2  0  0  0  0
  2  7  1  0  0  0  0
  3  8  2  0  0  0  0
  4  8  1  0  0  0  0
  5  6  1  0  0  0  0
  5 28  2  0  0  0  0
  6  9  1  0  0  0  0
  6 10  2  0  0  0  0
  7 11  1  0  0  0  0
  8 33  1  0  0  0  0
  9 29  2  0  0  0  0
  9 31  1  0  0  0  0
 10 30  1  0  0  0  0
 10 32  1  0  0  0  0
 11 29  1  0  0  0  0
 11 30  2  0  0  0  0
 12 33  1  0  0  0  0
 12 34  1  0  0  0  0
 12 35  2  0  0  0  0
 13 17  1  0  0  0  0
 13 23  1  0  0  0  0
 14 18  1  0  0  0  0
 14 23  1  0  0  0  0
 15 16  1  0  0  0  0
 15 24  1  0  0  0  0
 16 25  1  0  0  0  0
 17 26  1  0  0  0  0
 18 26  1  0  0  0  0
 19 24  1  0  0  0  0
 19 32  1  0  0  0  0
 20 25  1  0  0  0  0
 20 32  1  0  0  0  0
 21 22  1  0  0  0  0
 21 36  1  0  0  0  0
 22 37  1  0  0  0  0
 23 31  1  0  0  0  0
 24 38  1  0  0  0  0
 25 38  1  0  0  0  0
 26 36  1  0  0  0  0
 26 37  1  0  0  0  0
 27 34  1  0  0  0  0
 28 31  1  0  0  0  0
  1 39  1  0  0  0  0
  2 40  1  0  0  0  0
  3 41  1  0  0  0  0
  4 42  1  0  0  0  0
  5 43  1  0  0  0  0
 13 44  1  0  0  0  0
 13 45  1  0  0  0  0
 14 46  1  0  0  0  0
 14 47  1  0  0  0  0
 15 48  1  0  0  0  0
 15 49  1  0  0  0  0
 16 50  1  0  0  0  0
 16 51  1  0  0  0  0
 17 52  1  0  0  0  0
 17 53  1  0  0  0  0
 18 54  1  0  0  0  0
 18 55  1  0  0  0  0
 19 56  1  0  0  0  0
 19 57  1  0  0  0  0
 20 58  1  0  0  0  0
 20 59  1  0  0  0  0
 21 60  1  0  0  0  0
 21 61  1  0  0  0  0
 22 62  1  0  0  0  0
 22 63  1  0  0  0  0
 23 64  1  0  0  0  0
 24 65  1  0  0  0  0
 25 66  1  0  0  0  0
 27 67  1  0  0  0  0
 27 68  1  0  0  0  0
 27 69  1  0  0  0  0
 33 70  1  0  0  0  0
 34 71  1  0  0  0  0
M  END
> <SMILES>
CNC(=O)Nc1ccc(cc1)-c1nc(c2cnn(c2n1)C1CCC2(CC1)OCCO2)N1CC2CCC(C1)O2

> <FORMATTED_ID>
H3D-006580

> <MOLFORMULA>
C27H33N7O4

> <Exact Mass>
519.26

> <XLogP>
3.15

> <TPSA_NOPS>
115.7

> <s_m_source_file>
ligprep_h3d.sdf

> <i_m_source_file_index>
6861

> <i_lp_mmshare_version>
55123

> <i_f3d_flags>
0

> <s_epik_input>
W0NIM11bTkhdQyg9TylbTkhdYzFbY0hdW2NIXWMoW2NIXVtjSF0xKS1jKG5jMk4oW0NIMl1bQ0BIXTM0KVtDSDJdW0NASF0oTzQpW0NIMl1bQ0gyXTMpbmMoYzI1KW4obltjSF01KVtDSF0oW0NIMl1bQ0gyXTYpW0NIMl1bQ0gyXUM2N09bQ0gyXVtDSDJdTzc=

> <s_epik_cmdline>
J2VwaWtfcHl0aG9uJywgJy1waHQnLCAnMC41JywgJy1waCcsICc3LjUnLCAnLXRuJywgJzgnLCAnLW1hJywgJzUwMCcsICctaW1hZScsICc8aW5maWxlLm1hZT4nLCAnLW9tYWUnLCAnPG91dGZpbGUubWFlPic=

> <r_epik_Ionization_Penalty>
0.054785

> <r_epik_Ionization_Penalty_Charging>
0

> <r_epik_Ionization_Penalty_Neutral>
0.054785

> <r_epik_State_Penalty>
0.0469752

> <r_epik_Charging_Adjusted_Penalty>
0.0469752

> <i_epik_Tot_Q>
0

> <i_epik_Tot_abs_Q>
0

> <s_lp_Force_Field>
S-OPLS

> <r_lp_Energy>
44.252

> <b_lp_Chiralities_Consistent>
1

> <s_lp_Variant>
ligprep_h3d.sdf:6861-1

> <ROCS_ShapeQuery>
_7L13

> <ROCS_TanimotoCombo>
0.808 

> <ROCS_ShapeTanimoto>
0.667 

> <ROCS_ColorTanimoto>
0.140 

> <ROCS_RefTversky>
0.829 

> <ROCS_RefColorTversky>
0.372 

> <ROCS_RefTverskyCombo>
1.202 

> <ROCS_FitTversky>
0.774 

> <ROCS_FitColorTversky>
0.184 

> <ROCS_FitTverskyCombo>
0.957 

> <ROCS_ColorScore>
-3.554

> <ROCS_Overlap>
1382.462

> <ROCS_Rank>
25                  

$$$$
ligprep_h3d.sdf:2382_1852
  -OEChem-08212117123D

102106  0     1  0  0  0  0  0999 V2000
  -24.5221   -4.8926  -22.4415 C   0  0  0  0  0  0  0  0  0  0  0  0
  -25.6581   -5.3276  -23.1239 C   0  0  0  0  0  0  0  0  0  0  0  0
  -23.5385   -4.1683  -23.1150 C   0  0  0  0  0  0  0  0  0  0  0  0
  -25.8106   -5.0385  -24.4799 C   0  0  0  0  0  0  0  0  0  0  0  0
  -23.6910   -3.8792  -24.4710 C   0  0  0  0  0  0  0  0  0  0  0  0
  -24.8270   -4.3143  -25.1535 C   0  0  0  0  0  0  0  0  0  0  0  0
  -21.5412   -4.0538  -29.6966 C   0  0  0  0  0  0  0  0  0  0  0  0
  -18.2617   -5.6611  -26.2462 C   0  0  0  0  0  0  0  0  0  0  0  0
  -21.0186   -4.0688  -28.4648 C   0  0  0  0  0  0  0  0  0  0  0  0
  -17.0323   -5.2841  -25.8461 C   0  0  0  0  0  0  0  0  0  0  0  0
  -21.5721   -3.1526  -27.4197 C   0  0  0  0  0  0  0  0  0  0  0  0
  -23.3752   -0.9083  -29.7623 C   0  0  0  0  0  0  0  0  0  0  0  0
  -20.5240   -4.2005  -35.9134 C   0  0  0  0  0  0  0  0  0  0  0  0
  -19.3488   -8.4656  -36.2454 C   0  0  0  0  0  0  0  0  0  0  0  0
  -21.3690   -3.8269  -34.6832 C   0  0  0  0  0  0  0  0  0  0  0  0
  -19.7019   -7.8271  -34.8905 C   0  0  0  0  0  0  0  0  0  0  0  0
  -19.7382   -5.5720  -30.9106 C   0  0  0  0  0  0  0  0  0  0  0  0
  -22.7073   -3.3480  -31.6933 C   0  0  0  0  0  0  0  0  0  0  0  0
  -21.1103   -4.9037  -30.8670 C   0  0  2  0  0  0  0  0  0  0  0  0
  -22.6358   -3.1164  -30.1676 C   0  0  2  0  0  0  0  0  0  0  0  0
  -20.3780   -5.7130  -36.0492 C   0  0  1  0  0  0  0  0  0  0  0  0
  -19.8900   -5.5710  -33.4885 C   0  0  1  0  0  0  0  0  0  0  0  0
  -19.9091   -6.2513  -37.4283 C   0  0  1  0  0  0  0  0  0  0  0  0
  -20.0363   -7.7970  -37.4384 C   0  0  2  0  0  0  0  0  0  0  0  0
  -19.5927   -6.4008  -32.2032 C   0  0  2  0  0  0  0  0  0  0  0  0
  -19.5209   -6.2873  -34.8687 C   0  0  1  0  0  0  0  0  0  0  0  0
  -21.2686   -4.7888  -33.4470 C   0  0  1  0  0  0  0  0  0  0  0  0
  -21.3284   -3.9527  -32.0775 C   0  0  1  0  0  0  0  0  0  0  0  0
  -15.9839   -6.3199  -25.5362 C   0  0  0  0  0  0  0  0  0  0  0  0
  -16.5718   -3.8662  -25.6597 C   0  0  0  0  0  0  0  0  0  0  0  0
  -22.8855    0.4821  -29.4918 C   0  0  0  0  0  0  0  0  0  0  0  0
  -20.6896   -5.6421  -38.6005 C   0  0  0  0  0  0  0  0  0  0  0  0
  -17.9951   -5.9999  -35.0758 C   0  0  0  0  0  0  0  0  0  0  0  0
  -22.4732   -5.7768  -33.5229 C   0  0  0  0  0  0  0  0  0  0  0  0
  -20.2844   -2.7782  -32.0617 C   0  0  0  0  0  0  0  0  0  0  0  0
  -21.4580   -2.7167  -24.2232 C   0  0  0  0  0  0  0  0  0  0  0  0
  -19.4307   -4.7859  -26.6068 C   0  0  0  0  0  0  0  0  0  0  0  0
  -19.8239   -4.9088  -28.0854 C   0  0  0  0  0  0  0  0  0  0  0  0
  -22.5999   -3.0928  -25.1652 C   0  0  1  0  0  0  0  0  0  0  0  0
  -22.0838   -3.8041  -26.3117 N   0  0  0  0  0  0  0  0  0  0  0  0
  -21.4978   -1.9340  -27.5568 O   0  0  0  0  0  0  0  0  0  0  0  0
  -24.5570   -1.2157  -29.8386 O   0  0  0  0  0  0  0  0  0  0  0  0
  -21.4097   -8.1936  -37.4083 O   0  0  0  0  0  0  0  0  0  0  0  0
  -20.4578   -7.5296  -32.1167 O   0  0  0  0  0  0  0  0  0  0  0  0
  -22.3125   -1.7586  -29.9063 O   0  0  0  0  0  0  0  0  0  0  0  0
  -25.0505   -3.9754  -26.8311 Cl  0  0  0  0  0  0  0  0  0  0  0  0
  -24.4040   -5.1171  -21.3853 H   0  0  0  0  0  0  0  0  0  0  0  0
  -26.4243   -5.8905  -22.5988 H   0  0  0  0  0  0  0  0  0  0  0  0
  -22.6574   -3.8336  -22.5737 H   0  0  0  0  0  0  0  0  0  0  0  0
  -26.7023   -5.3837  -24.9969 H   0  0  0  0  0  0  0  0  0  0  0  0
  -18.4632   -6.7280  -26.3373 H   0  0  0  0  0  0  0  0  0  0  0  0
  -21.0133   -3.7605  -36.7882 H   0  0  0  0  0  0  0  0  0  0  0  0
  -19.5409   -3.7218  -35.8469 H   0  0  0  0  0  0  0  0  0  0  0  0
  -18.2636   -8.4451  -36.3928 H   0  0  0  0  0  0  0  0  0  0  0  0
  -19.6324   -9.5249  -36.2043 H   0  0  0  0  0  0  0  0  0  0  0  0
  -21.1006   -2.7990  -34.4304 H   0  0  0  0  0  0  0  0  0  0  0  0
  -22.4183   -3.7550  -34.9999 H   0  0  0  0  0  0  0  0  0  0  0  0
  -20.7396   -8.0843  -34.6494 H   0  0  0  0  0  0  0  0  0  0  0  0
  -19.0716   -8.3025  -34.1300 H   0  0  0  0  0  0  0  0  0  0  0  0
  -18.9361   -4.8281  -30.8507 H   0  0  0  0  0  0  0  0  0  0  0  0
  -19.6282   -6.2329  -30.0422 H   0  0  0  0  0  0  0  0  0  0  0  0
  -23.5184   -4.0574  -31.8857 H   0  0  0  0  0  0  0  0  0  0  0  0
  -22.9268   -2.4312  -32.2509 H   0  0  0  0  0  0  0  0  0  0  0  0
  -21.8532   -5.7110  -30.8783 H   0  0  0  0  0  0  0  0  0  0  0  0
  -23.5968   -3.3493  -29.7000 H   0  0  0  0  0  0  0  0  0  0  0  0
  -21.3980   -6.0989  -35.9607 H   0  0  0  0  0  0  0  0  0  0  0  0
  -19.1474   -4.7671  -33.4297 H   0  0  0  0  0  0  0  0  0  0  0  0
  -18.8589   -5.9874  -37.5921 H   0  0  0  0  0  0  0  0  0  0  0  0
  -19.6060   -8.2015  -38.3625 H   0  0  0  0  0  0  0  0  0  0  0  0
  -18.5675   -6.7855  -32.2470 H   0  0  0  0  0  0  0  0  0  0  0  0
  -15.4086   -6.5579  -26.4371 H   0  0  0  0  0  0  0  0  0  0  0  0
  -15.2768   -5.9834  -24.7707 H   0  0  0  0  0  0  0  0  0  0  0  0
  -16.4553   -7.2384  -25.1713 H   0  0  0  0  0  0  0  0  0  0  0  0
  -16.7382   -3.4778  -24.6534 H   0  0  0  0  0  0  0  0  0  0  0  0
  -17.0983   -3.2065  -26.3574 H   0  0  0  0  0  0  0  0  0  0  0  0
  -15.4976   -3.7912  -25.8605 H   0  0  0  0  0  0  0  0  0  0  0  0
  -22.7798    0.6351  -28.4149 H   0  0  0  0  0  0  0  0  0  0  0  0
  -23.5806    1.2097  -29.9182 H   0  0  0  0  0  0  0  0  0  0  0  0
  -21.9070    0.6197  -29.9611 H   0  0  0  0  0  0  0  0  0  0  0  0
  -21.7455   -5.8730  -38.4911 H   0  0  0  0  0  0  0  0  0  0  0  0
  -20.3228   -6.0581  -39.5346 H   0  0  0  0  0  0  0  0  0  0  0  0
  -20.5529   -4.5644  -38.6052 H   0  0  0  0  0  0  0  0  0  0  0  0
  -17.8555   -4.9329  -35.0627 H   0  0  0  0  0  0  0  0  0  0  0  0
  -17.7071   -6.4154  -36.0258 H   0  0  0  0  0  0  0  0  0  0  0  0
  -17.4585   -6.4696  -34.2699 H   0  0  0  0  0  0  0  0  0  0  0  0
  -22.4152   -6.4438  -32.6778 H   0  0  0  0  0  0  0  0  0  0  0  0
  -22.4003   -6.3259  -34.4479 H   0  0  0  0  0  0  0  0  0  0  0  0
  -23.3837   -5.2002  -33.4921 H   0  0  0  0  0  0  0  0  0  0  0  0
  -19.3279   -3.1902  -32.3267 H   0  0  0  0  0  0  0  0  0  0  0  0
  -20.2708   -2.3691  -31.0681 H   0  0  0  0  0  0  0  0  0  0  0  0
  -20.6069   -2.0472  -32.7803 H   0  0  0  0  0  0  0  0  0  0  0  0
  -20.9922   -3.6094  -23.7917 H   0  0  0  0  0  0  0  0  0  0  0  0
  -20.6848   -2.1570  -24.7615 H   0  0  0  0  0  0  0  0  0  0  0  0
  -21.7994   -2.0814  -23.3982 H   0  0  0  0  0  0  0  0  0  0  0  0
  -20.3010   -4.9664  -25.9699 H   0  0  0  0  0  0  0  0  0  0  0  0
  -19.1361   -3.7465  -26.4133 H   0  0  0  0  0  0  0  0  0  0  0  0
  -18.9680   -4.6121  -28.7049 H   0  0  0  0  0  0  0  0  0  0  0  0
  -20.0103   -5.9644  -28.3238 H   0  0  0  0  0  0  0  0  0  0  0  0
  -23.0248   -2.1634  -25.5640 H   0  0  0  0  0  0  0  0  0  0  0  0
  -22.0971   -4.8197  -26.3041 H   0  0  0  0  0  0  0  0  0  0  0  0
  -21.4151   -9.1595  -37.4788 H   0  0  0  0  0  0  0  0  0  0  0  0
  -20.1751   -8.0358  -31.3392 H   0  0  0  0  0  0  0  0  0  0  0  0
  1  2  2  0  0  0  0
  1  3  1  0  0  0  0
  2  4  1  0  0  0  0
  3  5  2  0  0  0  0
  4  6  2  0  0  0  0
  5  6  1  0  0  0  0
  5 39  1  0  0  0  0
  6 46  1  0  0  0  0
  7  9  2  0  0  0  0
  7 19  1  0  0  0  0
  7 20  1  0  0  0  0
  8 10  2  0  0  0  0
  8 37  1  0  0  0  0
  9 11  1  0  0  0  0
  9 38  1  0  0  0  0
 10 29  1  0  0  0  0
 10 30  1  0  0  0  0
 11 40  1  0  0  0  0
 11 41  2  0  0  0  0
 12 31  1  0  0  0  0
 12 42  2  0  0  0  0
 12 45  1  0  0  0  0
 13 15  1  0  0  0  0
 13 21  1  0  0  0  0
 14 16  1  0  0  0  0
 14 24  1  0  0  0  0
 15 27  1  0  0  0  0
 16 26  1  0  0  0  0
 17 19  1  0  0  0  0
 17 25  1  0  0  0  0
 18 20  1  0  0  0  0
 18 28  1  0  0  0  0
 19 28  1  0  0  0  0
 20 45  1  0  0  0  0
 21 23  1  0  0  0  0
 21 26  1  0  0  0  0
 22 25  1  0  0  0  0
 22 26  1  0  0  0  0
 22 27  1  0  0  0  0
 23 24  1  0  0  0  0
 23 32  1  0  0  0  0
 24 43  1  0  0  0  0
 25 44  1  0  0  0  0
 26 33  1  0  0  0  0
 27 28  1  0  0  0  0
 27 34  1  0  0  0  0
 28 35  1  0  0  0  0
 36 39  1  0  0  0  0
 37 38  1  0  0  0  0
 39 40  1  0  0  0  0
  1 47  1  0  0  0  0
  2 48  1  0  0  0  0
  3 49  1  0  0  0  0
  4 50  1  0  0  0  0
  8 51  1  0  0  0  0
 13 52  1  0  0  0  0
 13 53  1  0  0  0  0
 14 54  1  0  0  0  0
 14 55  1  0  0  0  0
 15 56  1  0  0  0  0
 15 57  1  0  0  0  0
 16 58  1  0  0  0  0
 16 59  1  0  0  0  0
 17 60  1  0  0  0  0
 17 61  1  0  0  0  0
 18 62  1  0  0  0  0
 18 63  1  0  0  0  0
 19 64  1  0  0  0  0
 20 65  1  0  0  0  0
 21 66  1  0  0  0  0
 22 67  1  0  0  0  0
 23 68  1  0  0  0  0
 24 69  1  0  0  0  0
 25 70  1  0  0  0  0
 29 71  1  0  0  0  0
 29 72  1  0  0  0  0
 29 73  1  0  0  0  0
 30 74  1  0  0  0  0
 30 75  1  0  0  0  0
 30 76  1  0  0  0  0
 31 77  1  0  0  0  0
 31 78  1  0  0  0  0
 31 79  1  0  0  0  0
 32 80  1  0  0  0  0
 32 81  1  0  0  0  0
 32 82  1  0  0  0  0
 33 83  1  0  0  0  0
 33 84  1  0  0  0  0
 33 85  1  0  0  0  0
 34 86  1  0  0  0  0
 34 87  1  0  0  0  0
 34 88  1  0  0  0  0
 35 89  1  0  0  0  0
 35 90  1  0  0  0  0
 35 91  1  0  0  0  0
 36 92  1  0  0  0  0
 36 93  1  0  0  0  0
 36 94  1  0  0  0  0
 37 95  1  0  0  0  0
 37 96  1  0  0  0  0
 38 97  1  0  0  0  0
 38 98  1  0  0  0  0
 39 99  1  0  0  0  0
 40100  1  0  0  0  0
 43101  1  0  0  0  0
 44102  1  0  0  0  0
M  END
> <SMILES>
C[C@@H](NC(=O)/C(=C/1\[C@H](C[C@@]2(C)[C@H]1C[C@@H](O)[C@H]1[C@@]3(C)CC[C@@H](O)[C@@H](C)[C@@H]3CC[C@@]12C)OC(=O)C)CCC=C(C)C)c1ccccc1Cl

> <FORMATTED_ID>
H3D-005471

> <MOLFORMULA>
C39H56ClNO5

> <Exact Mass>
653.38

> <XLogP>
8.16

> <TPSA_NOPS>
95.9

> <s_m_source_file>
ligprep_h3d.sdf

> <i_m_source_file_index>
2382

> <i_lp_mmshare_version>
55123

> <i_f3d_flags>
0

> <s_epik_input>
Q2xjMVtjSF1bY0hdW2NIXVtjSF1jMVtDQEBIXShbQ0gzXSlbTkhdQyg9TykvQyhbQ0gyXVtDSDJdW0NIXT1DKFtDSDNdKVtDSDNdKT1DKFxbQ0BIXShbQ0gyXTIpT0MoPU8pW0NIM10pW0NAQEhdKFtDQF0yM1tDSDNdKVtDSDJdW0NAQEhdKFtPSF0pW0NASF00W0NAXTUoW0NIM10pW0NASF0oW0NASF0oW0NIM10pW0NASF0oW09IXSlbQ0gyXVtDSDJdNSlbQ0gyXVtDSDJdW0NAXTM0W0NIM10=

> <s_epik_cmdline>
J2VwaWtfcHl0aG9uJywgJy1waHQnLCAnMC41JywgJy1waCcsICc3LjUnLCAnLXRuJywgJzgnLCAnLW1hJywgJzUwMCcsICctaW1hZScsICc8aW5maWxlLm1hZT4nLCAnLW9tYWUnLCAnPG91dGZpbGUubWFlPic=

> <r_lp_tautomer_probability>
1

> <r_epik_Ionization_Penalty>
1.59115e-06

> <r_epik_Ionization_Penalty_Charging>
0

> <r_epik_Ionization_Penalty_Neutral>
1.59115e-06

> <r_epik_State_Penalty>
-0

> <r_epik_Charging_Adjusted_Penalty>
0

> <i_epik_Tot_Q>
0

> <i_epik_Tot_abs_Q>
0

> <s_epik_Chemistry_Notes>
This compound has an ester and may undergo hydrolysis at high or low pH.

> <s_lp_Force_Field>
S-OPLS

> <r_lp_Energy>
85.8522

> <b_lp_Chiralities_Consistent>
1

> <s_lp_Variant>
ligprep_h3d.sdf:2382-1

> <ROCS_ShapeQuery>
_7L13

> <ROCS_TanimotoCombo>
0.725 

> <ROCS_ShapeTanimoto>
0.610 

> <ROCS_ColorTanimoto>
0.115 

> <ROCS_RefTversky>
0.829 

> <ROCS_RefColorTversky>
0.257 

> <ROCS_RefTverskyCombo>
1.085 

> <ROCS_FitTversky>
0.698 

> <ROCS_FitColorTversky>
0.172 

> <ROCS_FitTverskyCombo>
0.871 

> <ROCS_ColorScore>
-2.374

> <ROCS_Overlap>
1390.884

> <ROCS_Rank>
26                  

$$$$
ligprep_h3d.sdf:2374_1682
  -OEChem-08212117123D

108112  0     1  0  0  0  0  0999 V2000
  -21.4092   -4.1431  -29.4973 C   0  0  0  0  0  0  0  0  0  0  0  0
  -17.9755   -5.7493  -26.1997 C   0  0  0  0  0  0  0  0  0  0  0  0
  -20.8537   -4.1859  -28.2806 C   0  0  0  0  0  0  0  0  0  0  0  0
  -16.7524   -5.3375  -25.8152 C   0  0  0  0  0  0  0  0  0  0  0  0
  -21.4161   -3.3367  -27.1849 C   0  0  0  0  0  0  0  0  0  0  0  0
  -23.3715   -1.0773  -29.3866 C   0  0  0  0  0  0  0  0  0  0  0  0
  -26.2366   -4.8413  -23.4309 C   0  0  0  0  0  0  0  0  0  0  0  0
  -25.1577   -4.4893  -22.4115 C   0  0  0  0  0  0  0  0  0  0  0  0
  -25.6434   -5.5073  -24.6684 C   0  0  0  0  0  0  0  0  0  0  0  0
  -20.5535   -3.9959  -35.7384 C   0  0  0  0  0  0  0  0  0  0  0  0
  -24.0537   -3.6358  -23.0317 C   0  0  0  0  0  0  0  0  0  0  0  0
  -24.5400   -4.6557  -25.2924 C   0  0  0  0  0  0  0  0  0  0  0  0
  -19.2140   -8.1909  -36.2762 C   0  0  0  0  0  0  0  0  0  0  0  0
  -21.3800   -3.7080  -34.4729 C   0  0  0  0  0  0  0  0  0  0  0  0
  -19.5566   -7.6231  -34.8875 C   0  0  0  0  0  0  0  0  0  0  0  0
  -19.5787   -5.5340  -30.8179 C   0  0  0  0  0  0  0  0  0  0  0  0
  -22.6563   -3.4069  -31.4331 C   0  0  0  0  0  0  0  0  0  0  0  0
  -20.9754   -4.9262  -30.7123 C   0  0  2  0  0  0  0  0  0  0  0  0
  -22.5535   -3.2343  -29.9014 C   0  0  2  0  0  0  0  0  0  0  0  0
  -20.3494   -5.4942  -35.9403 C   0  0  1  0  0  0  0  0  0  0  0  0
  -19.7993   -5.4353  -33.3890 C   0  0  1  0  0  0  0  0  0  0  0  0
  -23.4481   -4.3068  -24.2720 C   0  0  0  0  0  0  0  0  0  0  0  0
  -19.8959   -5.9561  -37.3519 C   0  0  1  0  0  0  0  0  0  0  0  0
  -19.9600   -7.5042  -37.4228 C   0  0  2  0  0  0  0  0  0  0  0  0
  -19.4340   -6.3031  -32.1470 C   0  0  2  0  0  0  0  0  0  0  0  0
  -19.4383   -6.0792  -34.8065 C   0  0  1  0  0  0  0  0  0  0  0  0
  -21.2071   -4.7140  -33.2806 C   0  0  1  0  0  0  0  0  0  0  0  0
  -21.2645   -3.9372  -31.8765 C   0  0  1  0  0  0  0  0  0  0  0  0
  -15.6545   -6.3400  -25.5749 C   0  0  0  0  0  0  0  0  0  0  0  0
  -16.3454   -3.9102  -25.5818 C   0  0  0  0  0  0  0  0  0  0  0  0
  -22.9321    0.3203  -29.0709 C   0  0  0  0  0  0  0  0  0  0  0  0
  -20.7318   -5.3335  -38.4778 C   0  0  0  0  0  0  0  0  0  0  0  0
  -17.9316   -5.7198  -35.0397 C   0  0  0  0  0  0  0  0  0  0  0  0
  -22.3719   -5.7479  -33.3672 C   0  0  0  0  0  0  0  0  0  0  0  0
  -20.2694   -2.7215  -31.8381 C   0  0  0  0  0  0  0  0  0  0  0  0
  -21.2297   -3.1466  -23.9502 C   0  0  0  0  0  0  0  0  0  0  0  0
  -19.1886   -4.9102  -26.4943 C   0  0  0  0  0  0  0  0  0  0  0  0
  -19.6159   -4.9896  -27.9664 C   0  0  0  0  0  0  0  0  0  0  0  0
  -22.3848   -3.4112  -24.9048 C   0  0  1  0  0  0  0  0  0  0  0  0
  -21.8709   -4.0534  -26.0924 N   0  0  0  0  0  0  0  0  0  0  0  0
  -21.3955   -2.1115  -27.2732 O   0  0  0  0  0  0  0  0  0  0  0  0
  -24.5414   -1.4308  -29.4459 O   0  0  0  0  0  0  0  0  0  0  0  0
  -21.3147   -7.9590  -37.3748 O   0  0  0  0  0  0  0  0  0  0  0  0
  -20.2496   -7.4698  -32.0857 O   0  0  0  0  0  0  0  0  0  0  0  0
  -22.2792   -1.8758  -29.5923 O   0  0  0  0  0  0  0  0  0  0  0  0
  -18.1355   -6.8192  -26.3299 H   0  0  0  0  0  0  0  0  0  0  0  0
  -26.9746   -5.5084  -22.9712 H   0  0  0  0  0  0  0  0  0  0  0  0
  -26.7692   -3.9293  -23.7276 H   0  0  0  0  0  0  0  0  0  0  0  0
  -25.6087   -3.9533  -21.5687 H   0  0  0  0  0  0  0  0  0  0  0  0
  -24.7221   -5.4113  -22.0072 H   0  0  0  0  0  0  0  0  0  0  0  0
  -25.2362   -6.4887  -24.3955 H   0  0  0  0  0  0  0  0  0  0  0  0
  -26.4345   -5.6841  -25.4060 H   0  0  0  0  0  0  0  0  0  0  0  0
  -21.0836   -3.5418  -36.5816 H   0  0  0  0  0  0  0  0  0  0  0  0
  -19.5895   -3.4793  -35.6767 H   0  0  0  0  0  0  0  0  0  0  0  0
  -24.4657   -2.6549  -23.3015 H   0  0  0  0  0  0  0  0  0  0  0  0
  -23.2719   -3.4564  -22.2839 H   0  0  0  0  0  0  0  0  0  0  0  0
  -24.1016   -5.1961  -26.1399 H   0  0  0  0  0  0  0  0  0  0  0  0
  -24.9809   -3.7355  -25.6969 H   0  0  0  0  0  0  0  0  0  0  0  0
  -18.1349   -8.1189  -36.4497 H   0  0  0  0  0  0  0  0  0  0  0  0
  -19.4528   -9.2620  -36.2719 H   0  0  0  0  0  0  0  0  0  0  0  0
  -21.1472   -2.6808  -34.1845 H   0  0  0  0  0  0  0  0  0  0  0  0
  -22.4393   -3.6676  -34.7600 H   0  0  0  0  0  0  0  0  0  0  0  0
  -20.5761   -7.9332  -34.6314 H   0  0  0  0  0  0  0  0  0  0  0  0
  -18.8873   -8.1019  -34.1635 H   0  0  0  0  0  0  0  0  0  0  0  0
  -18.8064   -4.7601  -30.7473 H   0  0  0  0  0  0  0  0  0  0  0  0
  -19.4185   -6.2242  -29.9807 H   0  0  0  0  0  0  0  0  0  0  0  0
  -23.4425   -4.1414  -31.6344 H   0  0  0  0  0  0  0  0  0  0  0  0
  -22.9279   -2.4784  -31.9466 H   0  0  0  0  0  0  0  0  0  0  0  0
  -21.6846   -5.7630  -30.7384 H   0  0  0  0  0  0  0  0  0  0  0  0
  -23.4913   -3.5260  -29.4200 H   0  0  0  0  0  0  0  0  0  0  0  0
  -21.3501   -5.9258  -35.8424 H   0  0  0  0  0  0  0  0  0  0  0  0
  -19.0889   -4.6040  -33.3156 H   0  0  0  0  0  0  0  0  0  0  0  0
  -22.9583   -5.2376  -23.9577 H   0  0  0  0  0  0  0  0  0  0  0  0
  -18.8622   -5.6420  -37.5309 H   0  0  0  0  0  0  0  0  0  0  0  0
  -19.5384   -7.8526  -38.3734 H   0  0  0  0  0  0  0  0  0  0  0  0
  -18.3955   -6.6423  -32.2324 H   0  0  0  0  0  0  0  0  0  0  0  0
  -15.0942   -6.5170  -26.4990 H   0  0  0  0  0  0  0  0  0  0  0  0
  -14.9415   -6.0052  -24.8141 H   0  0  0  0  0  0  0  0  0  0  0  0
  -16.0779   -7.2915  -25.2367 H   0  0  0  0  0  0  0  0  0  0  0  0
  -16.5006   -3.5701  -24.5565 H   0  0  0  0  0  0  0  0  0  0  0  0
  -16.9170   -3.2455  -26.2382 H   0  0  0  0  0  0  0  0  0  0  0  0
  -15.2810   -3.7821  -25.8062 H   0  0  0  0  0  0  0  0  0  0  0  0
  -22.8041    0.4340  -27.9917 H   0  0  0  0  0  0  0  0  0  0  0  0
  -23.6676    1.0347  -29.4493 H   0  0  0  0  0  0  0  0  0  0  0  0
  -21.9730    0.5177  -29.5585 H   0  0  0  0  0  0  0  0  0  0  0  0
  -21.7741   -5.6127  -38.3518 H   0  0  0  0  0  0  0  0  0  0  0  0
  -20.3734   -5.6956  -39.4373 H   0  0  0  0  0  0  0  0  0  0  0  0
  -20.6396   -4.2516  -38.4413 H   0  0  0  0  0  0  0  0  0  0  0  0
  -17.8355   -4.6493  -34.9859 H   0  0  0  0  0  0  0  0  0  0  0  0
  -17.6523   -6.0841  -36.0130 H   0  0  0  0  0  0  0  0  0  0  0  0
  -17.3548   -6.1987  -34.2676 H   0  0  0  0  0  0  0  0  0  0  0  0
  -22.2641   -6.4454  -32.5522 H   0  0  0  0  0  0  0  0  0  0  0  0
  -22.3014   -6.2556  -34.3156 H   0  0  0  0  0  0  0  0  0  0  0  0
  -23.3042   -5.2117  -33.2897 H   0  0  0  0  0  0  0  0  0  0  0  0
  -19.3043   -3.0818  -32.1439 H   0  0  0  0  0  0  0  0  0  0  0  0
  -20.2460   -2.3525  -30.8292 H   0  0  0  0  0  0  0  0  0  0  0  0
  -20.6406   -1.9762  -32.5175 H   0  0  0  0  0  0  0  0  0  0  0  0
  -20.7614   -4.0863  -23.6375 H   0  0  0  0  0  0  0  0  0  0  0  0
  -21.5776   -2.6259  -23.0521 H   0  0  0  0  0  0  0  0  0  0  0  0
  -20.4535   -2.5331  -24.4213 H   0  0  0  0  0  0  0  0  0  0  0  0
  -20.0335   -5.1526  -25.8438 H   0  0  0  0  0  0  0  0  0  0  0  0
  -18.9317   -3.8679  -26.2653 H   0  0  0  0  0  0  0  0  0  0  0  0
  -18.7897   -4.6324  -28.5944 H   0  0  0  0  0  0  0  0  0  0  0  0
  -19.7652   -6.0416  -28.2437 H   0  0  0  0  0  0  0  0  0  0  0  0
  -22.8370   -2.4592  -25.2036 H   0  0  0  0  0  0  0  0  0  0  0  0
  -21.8423   -5.0680  -26.1266 H   0  0  0  0  0  0  0  0  0  0  0  0
  -21.2824   -8.9206  -37.4851 H   0  0  0  0  0  0  0  0  0  0  0  0
  -19.9257   -7.9946  -31.3372 H   0  0  0  0  0  0  0  0  0  0  0  0
  1  3  2  0  0  0  0
  1 18  1  0  0  0  0
  1 19  1  0  0  0  0
  2  4  2  0  0  0  0
  2 37  1  0  0  0  0
  3  5  1  0  0  0  0
  3 38  1  0  0  0  0
  4 29  1  0  0  0  0
  4 30  1  0  0  0  0
  5 40  1  0  0  0  0
  5 41  2  0  0  0  0
  6 31  1  0  0  0  0
  6 42  2  0  0  0  0
  6 45  1  0  0  0  0
  7  8  1  0  0  0  0
  7  9  1  0  0  0  0
  8 11  1  0  0  0  0
  9 12  1  0  0  0  0
 10 14  1  0  0  0  0
 10 20  1  0  0  0  0
 11 22  1  0  0  0  0
 12 22  1  0  0  0  0
 13 15  1  0  0  0  0
 13 24  1  0  0  0  0
 14 27  1  0  0  0  0
 15 26  1  0  0  0  0
 16 18  1  0  0  0  0
 16 25  1  0  0  0  0
 17 19  1  0  0  0  0
 17 28  1  0  0  0  0
 18 28  1  0  0  0  0
 19 45  1  0  0  0  0
 20 23  1  0  0  0  0
 20 26  1  0  0  0  0
 21 25  1  0  0  0  0
 21 26  1  0  0  0  0
 21 27  1  0  0  0  0
 22 39  1  0  0  0  0
 23 24  1  0  0  0  0
 23 32  1  0  0  0  0
 24 43  1  0  0  0  0
 25 44  1  0  0  0  0
 26 33  1  0  0  0  0
 27 28  1  0  0  0  0
 27 34  1  0  0  0  0
 28 35  1  0  0  0  0
 36 39  1  0  0  0  0
 37 38  1  0  0  0  0
 39 40  1  0  0  0  0
  2 46  1  0  0  0  0
  7 47  1  0  0  0  0
  7 48  1  0  0  0  0
  8 49  1  0  0  0  0
  8 50  1  0  0  0  0
  9 51  1  0  0  0  0
  9 52  1  0  0  0  0
 10 53  1  0  0  0  0
 10 54  1  0  0  0  0
 11 55  1  0  0  0  0
 11 56  1  0  0  0  0
 12 57  1  0  0  0  0
 12 58  1  0  0  0  0
 13 59  1  0  0  0  0
 13 60  1  0  0  0  0
 14 61  1  0  0  0  0
 14 62  1  0  0  0  0
 15 63  1  0  0  0  0
 15 64  1  0  0  0  0
 16 65  1  0  0  0  0
 16 66  1  0  0  0  0
 17 67  1  0  0  0  0
 17 68  1  0  0  0  0
 18 69  1  0  0  0  0
 19 70  1  0  0  0  0
 20 71  1  0  0  0  0
 21 72  1  0  0  0  0
 22 73  1  0  0  0  0
 23 74  1  0  0  0  0
 24 75  1  0  0  0  0
 25 76  1  0  0  0  0
 29 77  1  0  0  0  0
 29 78  1  0  0  0  0
 29 79  1  0  0  0  0
 30 80  1  0  0  0  0
 30 81  1  0  0  0  0
 30 82  1  0  0  0  0
 31 83  1  0  0  0  0
 31 84  1  0  0  0  0
 31 85  1  0  0  0  0
 32 86  1  0  0  0  0
 32 87  1  0  0  0  0
 32 88  1  0  0  0  0
 33 89  1  0  0  0  0
 33 90  1  0  0  0  0
 33 91  1  0  0  0  0
 34 92  1  0  0  0  0
 34 93  1  0  0  0  0
 34 94  1  0  0  0  0
 35 95  1  0  0  0  0
 35 96  1  0  0  0  0
 35 97  1  0  0  0  0
 36 98  1  0  0  0  0
 36 99  1  0  0  0  0
 36100  1  0  0  0  0
 37101  1  0  0  0  0
 37102  1  0  0  0  0
 38103  1  0  0  0  0
 38104  1  0  0  0  0
 39105  1  0  0  0  0
 40106  1  0  0  0  0
 43107  1  0  0  0  0
 44108  1  0  0  0  0
M  END
> <SMILES>
C[C@@H](NC(=O)/C(=C/1\[C@H](C[C@@]2(C)[C@H]1C[C@@H](O)[C@H]1[C@@]3(C)CC[C@@H](O)[C@@H](C)[C@@H]3CC[C@@]12C)OC(=O)C)CCC=C(C)C)C1CCCCC1

> <FORMATTED_ID>
H3D-005463

> <MOLFORMULA>
C39H63NO5

> <Exact Mass>
625.47

> <XLogP>
7.95

> <TPSA_NOPS>
95.9

> <s_m_source_file>
ligprep_h3d.sdf

> <i_m_source_file_index>
2374

> <i_lp_mmshare_version>
55123

> <i_f3d_flags>
0

> <s_epik_input>
W0NIMl0xW0NIMl1bQ0gyXVtDSDJdW0NIMl1bQ0hdMVtDQEBIXShbQ0gzXSlbTkhdQyg9TykvQyhbQ0gyXVtDSDJdW0NIXT1DKFtDSDNdKVtDSDNdKT1DKFxbQ0BIXShbQ0gyXTIpT0MoPU8pW0NIM10pW0NAQEhdKFtDQF0yM1tDSDNdKVtDSDJdW0NAQEhdKFtPSF0pW0NASF00W0NAXTUoW0NIM10pW0NASF0oW0NASF0oW0NIM10pW0NASF0oW09IXSlbQ0gyXVtDSDJdNSlbQ0gyXVtDSDJdW0NAXTM0W0NIM10=

> <s_epik_cmdline>
J2VwaWtfcHl0aG9uJywgJy1waHQnLCAnMC41JywgJy1waCcsICc3LjUnLCAnLXRuJywgJzgnLCAnLW1hJywgJzUwMCcsICctaW1hZScsICc8aW5maWxlLm1hZT4nLCAnLW9tYWUnLCAnPG91dGZpbGUubWFlPic=

> <r_lp_tautomer_probability>
1

> <r_epik_Ionization_Penalty>
4.231e-06

> <r_epik_Ionization_Penalty_Charging>
0

> <r_epik_Ionization_Penalty_Neutral>
4.231e-06

> <r_epik_State_Penalty>
-0

> <r_epik_Charging_Adjusted_Penalty>
0

> <i_epik_Tot_Q>
0

> <i_epik_Tot_abs_Q>
0

> <s_epik_Chemistry_Notes>
This compound has an ester and may undergo hydrolysis at high or low pH.

> <s_lp_Force_Field>
S-OPLS

> <r_lp_Energy>
83.7429

> <b_lp_Chiralities_Consistent>
1

> <s_lp_Variant>
ligprep_h3d.sdf:2374-1

> <ROCS_ShapeQuery>
_7L13

> <ROCS_TanimotoCombo>
0.736 

> <ROCS_ShapeTanimoto>
0.624 

> <ROCS_ColorTanimoto>
0.112 

> <ROCS_RefTversky>
0.829 

> <ROCS_RefColorTversky>
0.251 

> <ROCS_RefTverskyCombo>
1.079 

> <ROCS_FitTversky>
0.717 

> <ROCS_FitColorTversky>
0.168 

> <ROCS_FitTverskyCombo>
0.886 

> <ROCS_ColorScore>
-2.319

> <ROCS_Overlap>
1387.812

> <ROCS_Rank>
27                  

$$$$
ligprep_h3d.sdf:2379_1713
  -OEChem-08212117123D

105109  0     1  0  0  0  0  0999 V2000
  -25.8953   -5.6145  -23.3145 C   0  0  0  0  0  0  0  0  0  0  0  0
  -24.7720   -6.2286  -23.8682 C   0  0  0  0  0  0  0  0  0  0  0  0
  -26.0285   -4.2270  -23.3666 C   0  0  0  0  0  0  0  0  0  0  0  0
  -23.7817   -5.4552  -24.4739 C   0  0  0  0  0  0  0  0  0  0  0  0
  -25.0382   -3.4536  -23.9723 C   0  0  0  0  0  0  0  0  0  0  0  0
  -23.9148   -4.0677  -24.5259 C   0  0  0  0  0  0  0  0  0  0  0  0
  -21.6662   -4.0495  -29.7116 C   0  0  0  0  0  0  0  0  0  0  0  0
  -18.4367   -5.6934  -26.2313 C   0  0  0  0  0  0  0  0  0  0  0  0
  -21.1711   -4.0889  -28.4691 C   0  0  0  0  0  0  0  0  0  0  0  0
  -17.2235   -5.3065  -25.7934 C   0  0  0  0  0  0  0  0  0  0  0  0
  -21.7639   -3.2108  -27.4128 C   0  0  0  0  0  0  0  0  0  0  0  0
  -23.5416   -0.9279  -29.7398 C   0  0  0  0  0  0  0  0  0  0  0  0
  -21.7688   -2.8039  -24.1891 C   0  0  0  0  0  0  0  0  0  0  0  0
  -20.5086   -4.0246  -35.9055 C   0  0  0  0  0  0  0  0  0  0  0  0
  -19.2674   -8.2639  -36.3178 C   0  0  0  0  0  0  0  0  0  0  0  0
  -21.3860   -3.6936  -34.6857 C   0  0  0  0  0  0  0  0  0  0  0  0
  -19.6595   -7.6648  -34.9556 C   0  0  0  0  0  0  0  0  0  0  0  0
  -19.8158   -5.5123  -30.9222 C   0  0  0  0  0  0  0  0  0  0  0  0
  -22.7971   -3.3087  -31.7158 C   0  0  0  0  0  0  0  0  0  0  0  0
  -21.1976   -4.8636  -30.8929 C   0  0  2  0  0  0  0  0  0  0  0  0
  -22.7629   -3.1150  -30.1836 C   0  0  2  0  0  0  0  0  0  0  0  0
  -20.3387   -5.5311  -36.0759 C   0  0  1  0  0  0  0  0  0  0  0  0
  -19.9100   -5.4478  -33.5021 C   0  0  1  0  0  0  0  0  0  0  0  0
  -19.8317   -6.0278  -37.4571 C   0  0  1  0  0  0  0  0  0  0  0  0
  -19.9373   -7.5744  -37.5089 C   0  0  2  0  0  0  0  0  0  0  0  0
  -19.6300   -6.3059  -32.2316 C   0  0  2  0  0  0  0  0  0  0  0  0
  -19.5003   -6.1238  -34.8911 C   0  0  1  0  0  0  0  0  0  0  0  0
  -21.2998   -4.6853  -33.4722 C   0  0  1  0  0  0  0  0  0  0  0  0
  -21.4018   -3.8851  -32.0838 C   0  0  1  0  0  0  0  0  0  0  0  0
  -16.1642   -6.3323  -25.4874 C   0  0  0  0  0  0  0  0  0  0  0  0
  -16.7923   -3.8865  -25.5589 C   0  0  0  0  0  0  0  0  0  0  0  0
  -23.0773    0.4615  -29.4234 C   0  0  0  0  0  0  0  0  0  0  0  0
  -20.5942   -5.3995  -38.6310 C   0  0  0  0  0  0  0  0  0  0  0  0
  -17.9744   -5.8110  -35.0563 C   0  0  0  0  0  0  0  0  0  0  0  0
  -22.4887   -5.6869  -33.6001 C   0  0  0  0  0  0  0  0  0  0  0  0
  -20.3747   -2.6977  -32.0148 C   0  0  0  0  0  0  0  0  0  0  0  0
  -19.7962   -1.5282  -23.8976 C   0  0  0  0  0  0  0  0  0  0  0  0
  -19.6127   -4.8288  -26.5951 C   0  0  0  0  0  0  0  0  0  0  0  0
  -19.9705   -4.9184  -28.0850 C   0  0  0  0  0  0  0  0  0  0  0  0
  -22.8426   -3.2294  -25.1815 C   0  0  1  0  0  0  0  0  0  0  0  0
  -22.2886   -3.9007  -26.3345 N   0  0  0  0  0  0  0  0  0  0  0  0
  -21.7080   -1.9878  -27.5157 O   0  0  0  0  0  0  0  0  0  0  0  0
  -24.7171   -1.2490  -29.8506 O   0  0  0  0  0  0  0  0  0  0  0  0
  -21.7964   -3.1149  -23.0026 O   0  0  0  0  0  0  0  0  0  0  0  0
  -21.3054   -7.9898  -37.5199 O   0  0  0  0  0  0  0  0  0  0  0  0
  -20.4811   -7.4479  -32.1931 O   0  0  0  0  0  0  0  0  0  0  0  0
  -22.4643   -1.7602  -29.8810 O   0  0  0  0  0  0  0  0  0  0  0  0
  -20.8218   -2.0139  -24.7701 O   0  0  0  0  0  0  0  0  0  0  0  0
  -26.6669   -6.2170  -22.8441 H   0  0  0  0  0  0  0  0  0  0  0  0
  -24.6686   -7.3091  -23.8287 H   0  0  0  0  0  0  0  0  0  0  0  0
  -26.9035   -3.7486  -22.9366 H   0  0  0  0  0  0  0  0  0  0  0  0
  -22.9098   -5.9423  -24.9025 H   0  0  0  0  0  0  0  0  0  0  0  0
  -25.1504   -2.3731  -24.0081 H   0  0  0  0  0  0  0  0  0  0  0  0
  -18.6173   -6.7607  -26.3555 H   0  0  0  0  0  0  0  0  0  0  0  0
  -20.9842   -3.5690  -36.7798 H   0  0  0  0  0  0  0  0  0  0  0  0
  -19.5340   -3.5347  -35.8047 H   0  0  0  0  0  0  0  0  0  0  0  0
  -18.1796   -8.2253  -36.4400 H   0  0  0  0  0  0  0  0  0  0  0  0
  -19.5372   -9.3276  -36.3097 H   0  0  0  0  0  0  0  0  0  0  0  0
  -21.1374   -2.6690  -34.4012 H   0  0  0  0  0  0  0  0  0  0  0  0
  -22.4287   -3.6276  -35.0242 H   0  0  0  0  0  0  0  0  0  0  0  0
  -20.6986   -7.9418  -34.7446 H   0  0  0  0  0  0  0  0  0  0  0  0
  -19.0398   -8.1510  -34.1932 H   0  0  0  0  0  0  0  0  0  0  0  0
  -19.0256   -4.7596  -30.8254 H   0  0  0  0  0  0  0  0  0  0  0  0
  -19.7160   -6.1935  -30.0684 H   0  0  0  0  0  0  0  0  0  0  0  0
  -23.5938   -4.0237  -31.9443 H   0  0  0  0  0  0  0  0  0  0  0  0
  -23.0167   -2.3810  -32.2551 H   0  0  0  0  0  0  0  0  0  0  0  0
  -21.9288   -5.6801  -30.9413 H   0  0  0  0  0  0  0  0  0  0  0  0
  -23.7307   -3.3724  -29.7439 H   0  0  0  0  0  0  0  0  0  0  0  0
  -21.3550   -5.9326  -36.0203 H   0  0  0  0  0  0  0  0  0  0  0  0
  -19.1800   -4.6359  -33.4063 H   0  0  0  0  0  0  0  0  0  0  0  0
  -18.7818   -5.7460  -37.5904 H   0  0  0  0  0  0  0  0  0  0  0  0
  -19.4810   -7.9495  -38.4329 H   0  0  0  0  0  0  0  0  0  0  0  0
  -18.5988   -6.6758  -32.2618 H   0  0  0  0  0  0  0  0  0  0  0  0
  -15.5647   -6.5360  -26.3810 H   0  0  0  0  0  0  0  0  0  0  0  0
  -15.4804   -6.0045  -24.6973 H   0  0  0  0  0  0  0  0  0  0  0  0
  -16.6273   -7.2682  -25.1579 H   0  0  0  0  0  0  0  0  0  0  0  0
  -16.9879   -3.5283  -24.5467 H   0  0  0  0  0  0  0  0  0  0  0  0
  -17.3146   -3.2172  -26.2506 H   0  0  0  0  0  0  0  0  0  0  0  0
  -15.7154   -3.7878  -25.7330 H   0  0  0  0  0  0  0  0  0  0  0  0
  -22.9978    0.5884  -28.3409 H   0  0  0  0  0  0  0  0  0  0  0  0
  -23.7728    1.1904  -29.8470 H   0  0  0  0  0  0  0  0  0  0  0  0
  -22.0906    0.6239  -29.8668 H   0  0  0  0  0  0  0  0  0  0  0  0
  -21.6490   -5.6470  -38.5514 H   0  0  0  0  0  0  0  0  0  0  0  0
  -20.2009   -5.7866  -39.5667 H   0  0  0  0  0  0  0  0  0  0  0  0
  -20.4724   -4.3202  -38.6055 H   0  0  0  0  0  0  0  0  0  0  0  0
  -17.8499   -4.7429  -35.0132 H   0  0  0  0  0  0  0  0  0  0  0  0
  -17.6595   -6.1984  -36.0096 H   0  0  0  0  0  0  0  0  0  0  0  0
  -17.4494   -6.2939  -34.2504 H   0  0  0  0  0  0  0  0  0  0  0  0
  -22.4403   -6.3743  -32.7710 H   0  0  0  0  0  0  0  0  0  0  0  0
  -22.3875   -6.2112  -34.5367 H   0  0  0  0  0  0  0  0  0  0  0  0
  -23.4076   -5.1233  -33.5755 H   0  0  0  0  0  0  0  0  0  0  0  0
  -19.4069   -3.0900  -32.2684 H   0  0  0  0  0  0  0  0  0  0  0  0
  -20.3889   -2.3137  -31.0113 H   0  0  0  0  0  0  0  0  0  0  0  0
  -20.6911   -1.9529  -32.7219 H   0  0  0  0  0  0  0  0  0  0  0  0
  -19.0963   -0.9102  -24.4654 H   0  0  0  0  0  0  0  0  0  0  0  0
  -19.2698   -2.3732  -23.4467 H   0  0  0  0  0  0  0  0  0  0  0  0
  -20.2552   -0.9253  -23.1105 H   0  0  0  0  0  0  0  0  0  0  0  0
  -20.4937   -5.0413  -25.9832 H   0  0  0  0  0  0  0  0  0  0  0  0
  -19.3408   -3.7901  -26.3673 H   0  0  0  0  0  0  0  0  0  0  0  0
  -19.1063   -4.5905  -28.6767 H   0  0  0  0  0  0  0  0  0  0  0  0
  -20.1329   -5.9701  -28.3557 H   0  0  0  0  0  0  0  0  0  0  0  0
  -23.2722   -2.2992  -25.5735 H   0  0  0  0  0  0  0  0  0  0  0  0
  -22.2842   -4.9161  -26.3543 H   0  0  0  0  0  0  0  0  0  0  0  0
  -21.2959   -8.9535  -37.6147 H   0  0  0  0  0  0  0  0  0  0  0  0
  -20.2089   -7.9699  -31.4223 H   0  0  0  0  0  0  0  0  0  0  0  0
  1  2  2  0  0  0  0
  1  3  1  0  0  0  0
  2  4  1  0  0  0  0
  3  5  2  0  0  0  0
  4  6  2  0  0  0  0
  5  6  1  0  0  0  0
  6 40  1  0  0  0  0
  7  9  2  0  0  0  0
  7 20  1  0  0  0  0
  7 21  1  0  0  0  0
  8 10  2  0  0  0  0
  8 38  1  0  0  0  0
  9 11  1  0  0  0  0
  9 39  1  0  0  0  0
 10 30  1  0  0  0  0
 10 31  1  0  0  0  0
 11 41  1  0  0  0  0
 11 42  2  0  0  0  0
 12 32  1  0  0  0  0
 12 43  2  0  0  0  0
 12 47  1  0  0  0  0
 13 40  1  0  0  0  0
 13 44  2  0  0  0  0
 13 48  1  0  0  0  0
 14 16  1  0  0  0  0
 14 22  1  0  0  0  0
 15 17  1  0  0  0  0
 15 25  1  0  0  0  0
 16 28  1  0  0  0  0
 17 27  1  0  0  0  0
 18 20  1  0  0  0  0
 18 26  1  0  0  0  0
 19 21  1  0  0  0  0
 19 29  1  0  0  0  0
 20 29  1  0  0  0  0
 21 47  1  0  0  0  0
 22 24  1  0  0  0  0
 22 27  1  0  0  0  0
 23 26  1  0  0  0  0
 23 27  1  0  0  0  0
 23 28  1  0  0  0  0
 24 25  1  0  0  0  0
 24 33  1  0  0  0  0
 25 45  1  0  0  0  0
 26 46  1  0  0  0  0
 27 34  1  0  0  0  0
 28 29  1  0  0  0  0
 28 35  1  0  0  0  0
 29 36  1  0  0  0  0
 37 48  1  0  0  0  0
 38 39  1  0  0  0  0
 40 41  1  0  0  0  0
  1 49  1  0  0  0  0
  2 50  1  0  0  0  0
  3 51  1  0  0  0  0
  4 52  1  0  0  0  0
  5 53  1  0  0  0  0
  8 54  1  0  0  0  0
 14 55  1  0  0  0  0
 14 56  1  0  0  0  0
 15 57  1  0  0  0  0
 15 58  1  0  0  0  0
 16 59  1  0  0  0  0
 16 60  1  0  0  0  0
 17 61  1  0  0  0  0
 17 62  1  0  0  0  0
 18 63  1  0  0  0  0
 18 64  1  0  0  0  0
 19 65  1  0  0  0  0
 19 66  1  0  0  0  0
 20 67  1  0  0  0  0
 21 68  1  0  0  0  0
 22 69  1  0  0  0  0
 23 70  1  0  0  0  0
 24 71  1  0  0  0  0
 25 72  1  0  0  0  0
 26 73  1  0  0  0  0
 30 74  1  0  0  0  0
 30 75  1  0  0  0  0
 30 76  1  0  0  0  0
 31 77  1  0  0  0  0
 31 78  1  0  0  0  0
 31 79  1  0  0  0  0
 32 80  1  0  0  0  0
 32 81  1  0  0  0  0
 32 82  1  0  0  0  0
 33 83  1  0  0  0  0
 33 84  1  0  0  0  0
 33 85  1  0  0  0  0
 34 86  1  0  0  0  0
 34 87  1  0  0  0  0
 34 88  1  0  0  0  0
 35 89  1  0  0  0  0
 35 90  1  0  0  0  0
 35 91  1  0  0  0  0
 36 92  1  0  0  0  0
 36 93  1  0  0  0  0
 36 94  1  0  0  0  0
 37 95  1  0  0  0  0
 37 96  1  0  0  0  0
 37 97  1  0  0  0  0
 38 98  1  0  0  0  0
 38 99  1  0  0  0  0
 39100  1  0  0  0  0
 39101  1  0  0  0  0
 40102  1  0  0  0  0
 41103  1  0  0  0  0
 45104  1  0  0  0  0
 46105  1  0  0  0  0
M  END
> <SMILES>
COC(=O)[C@@H](NC(=O)/C(=C/1\[C@H](C[C@@]2(C)[C@H]1C[C@@H](O)[C@H]1[C@@]3(C)CC[C@@H](O)[C@@H](C)[C@@H]3CC[C@@]12C)OC(=O)C)CCC=C(C)C)c1ccccc1

> <FORMATTED_ID>
H3D-005468

> <MOLFORMULA>
C40H57NO7

> <Exact Mass>
663.41

> <XLogP>
6.86

> <TPSA_NOPS>
122.2

> <s_m_source_file>
ligprep_h3d.sdf

> <i_m_source_file_index>
2379

> <i_lp_mmshare_version>
55123

> <i_f3d_flags>
0

> <s_epik_input>
W2NIXTFbY0hdW2NIXVtjSF1bY0hdYzFbQ0BASF0oQyg9TylPW0NIM10pW05IXUMoPU8pL0MoW0NIMl1bQ0gyXVtDSF09QyhbQ0gzXSlbQ0gzXSk9QyhcW0NASF0oW0NIMl0yKU9DKD1PKVtDSDNdKVtDQEBIXShbQ0BdMjNbQ0gzXSlbQ0gyXVtDQEBIXShbT0hdKVtDQEhdNFtDQF01KFtDSDNdKVtDQEhdKFtDQEhdKFtDSDNdKVtDQEhdKFtPSF0pW0NIMl1bQ0gyXTUpW0NIMl1bQ0gyXVtDQF0zNFtDSDNd

> <s_epik_cmdline>
J2VwaWtfcHl0aG9uJywgJy1waHQnLCAnMC41JywgJy1waCcsICc3LjUnLCAnLXRuJywgJzgnLCAnLW1hJywgJzUwMCcsICctaW1hZScsICc8aW5maWxlLm1hZT4nLCAnLW9tYWUnLCAnPG91dGZpbGUubWFlPic=

> <r_lp_tautomer_probability>
1

> <r_epik_Ionization_Penalty>
3.24105e-06

> <r_epik_Ionization_Penalty_Charging>
0

> <r_epik_Ionization_Penalty_Neutral>
3.24105e-06

> <r_epik_State_Penalty>
-0

> <r_epik_Charging_Adjusted_Penalty>
0

> <i_epik_Tot_Q>
0

> <i_epik_Tot_abs_Q>
0

> <s_epik_Chemistry_Notes>
This compound has an ester and may undergo hydrolysis at high or low pH.

> <s_lp_Force_Field>
S-OPLS

> <r_lp_Energy>
95.3439

> <b_lp_Chiralities_Consistent>
1

> <s_lp_Variant>
ligprep_h3d.sdf:2379-1

> <ROCS_ShapeQuery>
_7L13

> <ROCS_TanimotoCombo>
0.730 

> <ROCS_ShapeTanimoto>
0.585 

> <ROCS_ColorTanimoto>
0.144 

> <ROCS_RefTversky>
0.828 

> <ROCS_RefColorTversky>
0.326 

> <ROCS_RefTverskyCombo>
1.153 

> <ROCS_FitTversky>
0.667 

> <ROCS_FitColorTversky>
0.206 

> <ROCS_FitTverskyCombo>
0.872 

> <ROCS_ColorScore>
-3.028

> <ROCS_Overlap>
1393.529

> <ROCS_Rank>
28                  

$$$$
ligprep_h3d.sdf:2206_1856
  -OEChem-08212117123D

 79 84  0     0  0  0  0  0  0999 V2000
  -21.0714   -5.0781  -23.3700 C   0  0  0  0  0  0  0  0  0  0  0  0
  -20.0444   -5.7750  -37.2337 C   0  0  0  0  0  0  0  0  0  0  0  0
  -19.0136   -6.6731  -36.9570 C   0  0  0  0  0  0  0  0  0  0  0  0
  -15.6190   -4.5390  -27.1737 C   0  0  0  0  0  0  0  0  0  0  0  0
  -24.4638   -5.3090  -25.2991 C   0  0  0  0  0  0  0  0  0  0  0  0
  -23.7739   -3.7013  -23.6329 C   0  0  0  0  0  0  0  0  0  0  0  0
  -16.3130   -4.2195  -28.3361 C   0  0  0  0  0  0  0  0  0  0  0  0
  -21.0031   -5.4923  -36.2607 C   0  0  0  0  0  0  0  0  0  0  0  0
  -25.7133   -5.4072  -24.6870 C   0  0  0  0  0  0  0  0  0  0  0  0
  -25.0235   -3.7994  -23.0208 C   0  0  0  0  0  0  0  0  0  0  0  0
  -16.3024   -4.7326  -25.9721 C   0  0  0  0  0  0  0  0  0  0  0  0
  -18.9416   -7.2887  -35.7074 C   0  0  0  0  0  0  0  0  0  0  0  0
  -23.4940   -4.4561  -24.7720 C   0  0  0  0  0  0  0  0  0  0  0  0
  -17.7054   -4.0699  -28.3323 C   0  0  0  0  0  0  0  0  0  0  0  0
  -25.9932   -4.6524  -23.5479 C   0  0  0  0  0  0  0  0  0  0  0  0
  -20.9311   -6.1079  -35.0111 C   0  0  0  0  0  0  0  0  0  0  0  0
  -17.7019   -4.5905  -25.9535 C   0  0  0  0  0  0  0  0  0  0  0  0
  -18.3888   -4.2421  -27.1178 C   0  0  0  0  0  0  0  0  0  0  0  0
  -19.9004   -7.0061  -34.7344 C   0  0  0  0  0  0  0  0  0  0  0  0
  -19.7665   -4.5502  -25.3882 C   0  0  0  0  0  0  0  0  0  0  0  0
  -22.0756   -3.9061  -26.8104 C   0  0  0  0  0  0  0  0  0  0  0  0
  -21.0375   -4.6514  -24.7338 C   0  0  0  0  0  0  0  0  0  0  0  0
  -22.1676   -4.3518  -25.4213 C   0  0  0  0  0  0  0  0  0  0  0  0
  -20.8925   -3.8029  -27.4498 C   0  0  0  0  0  0  0  0  0  0  0  0
  -18.3116   -3.8905  -29.6350 C   0  0  0  0  0  0  0  0  0  0  0  0
  -21.8955   -4.9691  -30.1994 C   0  0  0  0  0  0  0  0  0  0  0  0
  -21.8415   -2.5170  -30.7956 C   0  0  0  0  0  0  0  0  0  0  0  0
  -22.9943   -5.1876  -31.2298 C   0  0  0  0  0  0  0  0  0  0  0  0
  -22.9405   -2.7506  -31.8228 C   0  0  0  0  0  0  0  0  0  0  0  0
  -21.9002   -3.5382  -29.6576 C   0  0  0  0  0  0  0  0  0  0  0  0
  -19.0583   -6.9509  -32.5110 C   0  0  0  0  0  0  0  0  0  0  0  0
  -18.3607   -2.4865  -31.5697 C   0  0  0  0  0  0  0  0  0  0  0  0
  -21.9719   -5.7920  -33.9762 C   0  0  0  0  0  0  0  0  0  0  0  0
  -21.7895   -4.4301  -33.3139 C   0  0  0  0  0  0  0  0  0  0  0  0
  -27.3302   -4.7561  -22.8954 C   0  0  0  0  0  0  0  0  0  0  0  0
  -21.0990   -5.4246  -22.2632 N   0  0  0  0  0  0  0  0  0  0  0  0
  -18.5610   -4.7689  -24.9073 N   0  0  0  0  0  0  0  0  0  0  0  0
  -19.7278   -4.1621  -26.7347 N   0  0  0  0  0  0  0  0  0  0  0  0
  -20.8099   -3.3374  -28.7332 N   0  0  0  0  0  0  0  0  0  0  0  0
  -22.9049   -4.1681  -32.3383 N   0  3  0  0  0  0  0  0  0  0  0  0
  -19.1621   -4.6485  -30.1290 O   0  0  0  0  0  0  0  0  0  0  0  0
  -19.8160   -7.6166  -33.5193 O   0  0  0  0  0  0  0  0  0  0  0  0
  -17.8346   -2.7732  -30.2694 O   0  0  0  0  0  0  0  0  0  0  0  0
  -28.1782   -5.6261  -23.5198 F   0  0  0  0  0  0  0  0  0  0  0  0
  -27.2743   -5.1823  -21.5989 F   0  0  0  0  0  0  0  0  0  0  0  0
  -27.9914   -3.5625  -22.8602 F   0  0  0  0  0  0  0  0  0  0  0  0
  -20.1012   -5.2958  -38.2069 H   0  0  0  0  0  0  0  0  0  0  0  0
  -18.2680   -6.8935  -37.7152 H   0  0  0  0  0  0  0  0  0  0  0  0
  -14.5390   -4.6547  -27.2029 H   0  0  0  0  0  0  0  0  0  0  0  0
  -24.2603   -5.9039  -26.1863 H   0  0  0  0  0  0  0  0  0  0  0  0
  -23.0285   -3.0317  -23.2104 H   0  0  0  0  0  0  0  0  0  0  0  0
  -15.7522   -4.1089  -29.2625 H   0  0  0  0  0  0  0  0  0  0  0  0
  -21.8031   -4.7923  -36.4866 H   0  0  0  0  0  0  0  0  0  0  0  0
  -26.4630   -6.0739  -25.1048 H   0  0  0  0  0  0  0  0  0  0  0  0
  -25.2332   -3.2078  -22.1336 H   0  0  0  0  0  0  0  0  0  0  0  0
  -15.7596   -4.9998  -25.0706 H   0  0  0  0  0  0  0  0  0  0  0  0
  -18.1364   -7.9875  -35.4978 H   0  0  0  0  0  0  0  0  0  0  0  0
  -23.0000   -3.6057  -27.2976 H   0  0  0  0  0  0  0  0  0  0  0  0
  -22.0462   -5.6620  -29.3668 H   0  0  0  0  0  0  0  0  0  0  0  0
  -20.9238   -5.2106  -30.6356 H   0  0  0  0  0  0  0  0  0  0  0  0
  -20.8643   -2.5448  -31.2847 H   0  0  0  0  0  0  0  0  0  0  0  0
  -21.9519   -1.5120  -30.3764 H   0  0  0  0  0  0  0  0  0  0  0  0
  -22.9363   -6.1867  -31.6913 H   0  0  0  0  0  0  0  0  0  0  0  0
  -23.9854   -5.0769  -30.7626 H   0  0  0  0  0  0  0  0  0  0  0  0
  -23.9304   -2.5938  -31.3654 H   0  0  0  0  0  0  0  0  0  0  0  0
  -22.8483   -2.0772  -32.6908 H   0  0  0  0  0  0  0  0  0  0  0  0
  -22.8381   -3.3798  -29.0916 H   0  0  0  0  0  0  0  0  0  0  0  0
  -19.0718   -7.5437  -31.5931 H   0  0  0  0  0  0  0  0  0  0  0  0
  -19.4862   -5.9625  -32.3254 H   0  0  0  0  0  0  0  0  0  0  0  0
  -18.0274   -6.8406  -32.8557 H   0  0  0  0  0  0  0  0  0  0  0  0
  -17.8983   -1.5756  -31.9579 H   0  0  0  0  0  0  0  0  0  0  0  0
  -19.4442   -2.3589  -31.5054 H   0  0  0  0  0  0  0  0  0  0  0  0
  -18.1330   -3.3209  -32.2372 H   0  0  0  0  0  0  0  0  0  0  0  0
  -22.9593   -5.8134  -34.4563 H   0  0  0  0  0  0  0  0  0  0  0  0
  -21.9990   -6.5781  -33.2104 H   0  0  0  0  0  0  0  0  0  0  0  0
  -21.8359   -3.6281  -34.0565 H   0  0  0  0  0  0  0  0  0  0  0  0
  -20.8523   -4.3521  -32.7545 H   0  0  0  0  0  0  0  0  0  0  0  0
  -19.9758   -2.8650  -28.9821 H   0  0  0  0  0  0  0  0  0  0  0  0
  -23.7966   -4.2857  -32.9023 H   0  0  0  0  0  0  0  0  0  0  0  0
  1 22  1  0  0  0  0
  1 36  3  0  0  0  0
  2  3  2  0  0  0  0
  2  8  1  0  0  0  0
  3 12  1  0  0  0  0
  4  7  2  0  0  0  0
  4 11  1  0  0  0  0
  5  9  1  0  0  0  0
  5 13  2  0  0  0  0
  6 10  2  0  0  0  0
  6 13  1  0  0  0  0
  7 14  1  0  0  0  0
  8 16  2  0  0  0  0
  9 15  2  0  0  0  0
 10 15  1  0  0  0  0
 11 17  2  0  0  0  0
 12 19  2  0  0  0  0
 13 23  1  0  0  0  0
 14 18  2  0  0  0  0
 14 25  1  0  0  0  0
 15 35  1  0  0  0  0
 16 19  1  0  0  0  0
 16 33  1  0  0  0  0
 17 18  1  0  0  0  0
 17 37  1  0  0  0  0
 18 38  1  0  0  0  0
 19 42  1  0  0  0  0
 20 22  1  0  0  0  0
 20 37  2  0  0  0  0
 20 38  1  0  0  0  0
 21 23  1  0  0  0  0
 21 24  2  0  0  0  0
 22 23  2  0  0  0  0
 24 38  1  0  0  0  0
 24 39  1  0  0  0  0
 25 41  2  0  0  0  0
 25 43  1  0  0  0  0
 26 28  1  0  0  0  0
 26 30  1  0  0  0  0
 27 29  1  0  0  0  0
 27 30  1  0  0  0  0
 28 40  1  0  0  0  0
 29 40  1  0  0  0  0
 30 39  1  0  0  0  0
 31 42  1  0  0  0  0
 32 43  1  0  0  0  0
 33 34  1  0  0  0  0
 34 40  1  0  0  0  0
 35 44  1  0  0  0  0
 35 45  1  0  0  0  0
 35 46  1  0  0  0  0
  2 47  1  0  0  0  0
  3 48  1  0  0  0  0
  4 49  1  0  0  0  0
  5 50  1  0  0  0  0
  6 51  1  0  0  0  0
  7 52  1  0  0  0  0
  8 53  1  0  0  0  0
  9 54  1  0  0  0  0
 10 55  1  0  0  0  0
 11 56  1  0  0  0  0
 12 57  1  0  0  0  0
 21 58  1  0  0  0  0
 26 59  1  0  0  0  0
 26 60  1  0  0  0  0
 27 61  1  0  0  0  0
 27 62  1  0  0  0  0
 28 63  1  0  0  0  0
 28 64  1  0  0  0  0
 29 65  1  0  0  0  0
 29 66  1  0  0  0  0
 30 67  1  0  0  0  0
 31 68  1  0  0  0  0
 31 69  1  0  0  0  0
 31 70  1  0  0  0  0
 32 71  1  0  0  0  0
 32 72  1  0  0  0  0
 32 73  1  0  0  0  0
 33 74  1  0  0  0  0
 33 75  1  0  0  0  0
 34 76  1  0  0  0  0
 34 77  1  0  0  0  0
 39 78  1  0  0  0  0
 40 79  1  0  0  0  0
M  CHG  1  40   1
M  END
> <SMILES>
COC(=O)c1cccc2nc3c(c(cc(n3c12)NC1CCN(CC1)CCc1ccccc1OC)-c1ccc(cc1)C(F)(F)F)C#N

> <FORMATTED_ID>
H3D-004827

> <MOLFORMULA>
C35H32F3N5O3

> <Exact Mass>
627.25

> <XLogP>
8.24

> <TPSA_NOPS>
91.9

> <s_m_source_file>
ligprep_h3d.sdf

> <i_m_source_file_index>
2206

> <i_lp_mmshare_version>
55123

> <i_f3d_flags>
0

> <s_epik_input>
W0NIM11PQyg9TyljKFtjSF1bY0hdW2NIXTEpYyhjMTIpbjNjKG4yKWMoQyNOKWMoLWM0W2NIXVtjSF1jKEMoRikoRilGKVtjSF1bY0hdNClbY0hdYzNbTkhdW0NIXTVbQ0gyXVtDSDJdTihbQ0gyXVtDSDJdNSlbQ0gyXVtDSDJdYzZbY0hdW2NIXVtjSF1bY0hdYzZPW0NIM10=

> <s_epik_cmdline>
J2VwaWtfcHl0aG9uJywgJy1waHQnLCAnMC41JywgJy1waCcsICc3LjUnLCAnLXRuJywgJzgnLCAnLW1hJywgJzUwMCcsICctaW1hZScsICc8aW5maWxlLm1hZT4nLCAnLW9tYWUnLCAnPG91dGZpbGUubWFlPic=

> <r_lp_tautomer_probability>
1

> <r_epik_Ionization_Penalty>
0.00486974

> <r_epik_Ionization_Penalty_Charging>
0.00453757

> <r_epik_Ionization_Penalty_Neutral>
0.000332169

> <r_epik_State_Penalty>
-0

> <r_epik_Charging_Adjusted_Penalty>
0.00453757

> <i_epik_Tot_Q>
1

> <i_epik_Tot_abs_Q>
1

> <s_epik_Chemistry_Notes>
This compound has an ester and may undergo hydrolysis at high or low pH.

> <s_lp_Force_Field>
S-OPLS

> <r_lp_Energy>
94.1188

> <b_lp_Chiralities_Consistent>
1

> <s_lp_Variant>
ligprep_h3d.sdf:2206-1

> <ROCS_ShapeQuery>
_7L13

> <ROCS_TanimotoCombo>
0.708 

> <ROCS_ShapeTanimoto>
0.580 

> <ROCS_ColorTanimoto>
0.128 

> <ROCS_RefTversky>
0.827 

> <ROCS_RefColorTversky>
0.272 

> <ROCS_RefTverskyCombo>
1.099 

> <ROCS_FitTversky>
0.660 

> <ROCS_FitColorTversky>
0.195 

> <ROCS_FitTverskyCombo>
0.855 

> <ROCS_ColorScore>
-2.503

> <ROCS_Overlap>
1393.339

> <ROCS_Rank>
29                  

$$$$
ligprep_h3d.sdf:2747_1897
  -OEChem-08212117123D

 70 73  0     1  0  0  0  0  0999 V2000
  -17.7847   -3.5109  -25.5492 C   0  0  0  0  0  0  0  0  0  0  0  0
  -17.0771   -4.7111  -25.6158 C   0  0  0  0  0  0  0  0  0  0  0  0
  -17.3484   -6.2686  -35.7534 C   0  0  0  0  0  0  0  0  0  0  0  0
  -19.1682   -3.5061  -25.7269 C   0  0  0  0  0  0  0  0  0  0  0  0
  -18.2244   -6.9897  -34.9423 C   0  0  0  0  0  0  0  0  0  0  0  0
  -17.7530   -5.9065  -25.8601 C   0  0  0  0  0  0  0  0  0  0  0  0
  -17.8494   -5.4447  -36.7614 C   0  0  0  0  0  0  0  0  0  0  0  0
  -20.1026   -6.0633  -36.1471 C   0  0  0  0  0  0  0  0  0  0  0  0
  -19.6015   -6.8872  -35.1391 C   0  0  0  0  0  0  0  0  0  0  0  0
  -19.8441   -4.7016  -25.9713 C   0  0  0  0  0  0  0  0  0  0  0  0
  -19.1365   -5.9018  -26.0379 C   0  0  0  0  0  0  0  0  0  0  0  0
  -19.2264   -5.3421  -36.9582 C   0  0  0  0  0  0  0  0  0  0  0  0
  -20.9650   -6.2389  -32.2625 C   0  0  0  0  0  0  0  0  0  0  0  0
  -22.1247   -4.4916  -32.1640 C   0  0  0  0  0  0  0  0  0  0  0  0
  -22.6180   -2.8773  -29.9562 C   0  0  0  0  0  0  0  0  0  0  0  0
  -21.8389   -3.9585  -29.7906 C   0  0  0  0  0  0  0  0  0  0  0  0
  -23.1500   -2.6474  -31.3326 C   0  0  0  0  0  0  0  0  0  0  0  0
  -23.2572   -4.6621  -24.5609 C   0  0  0  0  0  0  0  0  0  0  0  0
  -24.0263   -1.4358  -31.5331 C   0  0  0  0  0  0  0  0  0  0  0  0
  -24.8885   -5.9160  -22.5819 C   0  0  0  0  0  0  0  0  0  0  0  0
  -25.0740   -3.6316  -21.5540 C   0  0  0  0  0  0  0  0  0  0  0  0
  -25.9618   -4.0376  -23.8681 C   0  0  0  0  0  0  0  0  0  0  0  0
  -18.9805   -8.2570  -26.3282 C   0  0  0  0  0  0  0  0  0  0  0  0
  -20.5439   -7.6647  -34.2664 C   0  0  0  0  0  0  0  0  0  0  0  0
  -21.7950   -3.8227  -27.3602 C   0  0  0  0  0  0  0  0  0  0  0  0
  -21.3506   -4.6770  -26.1627 C   0  0  2  0  0  0  0  0  0  0  0  0
  -24.8832   -4.4122  -22.8527 C   0  0  0  0  0  0  0  0  0  0  0  0
  -21.7320   -5.4139  -33.0195 N   0  0  0  0  0  0  0  0  0  0  0  0
  -20.8427   -5.9049  -30.9814 N   0  0  0  0  0  0  0  0  0  0  0  0
  -22.9185   -3.4029  -32.3654 N   0  0  0  0  0  0  0  0  0  0  0  0
  -21.5899   -4.7727  -30.9028 N   0  0  0  0  0  0  0  0  0  0  0  0
  -20.3941   -7.3184  -32.8567 N   0  0  0  0  0  0  0  0  0  0  0  0
  -21.2712   -4.3194  -28.6024 N   0  0  0  0  0  0  0  0  0  0  0  0
  -22.0230   -4.2167  -24.9417 N   0  0  0  0  0  0  0  0  0  0  0  0
  -23.9555   -5.4764  -25.1560 O   0  0  0  0  0  0  0  0  0  0  0  0
  -19.7813   -7.0781  -26.2765 O   0  0  0  0  0  0  0  0  0  0  0  0
  -23.6060   -4.0503  -23.3898 O   0  0  0  0  0  0  0  0  0  0  0  0
  -19.8439   -4.3264  -38.2027 Cl  0  0  0  0  0  0  0  0  0  0  0  0
  -17.2587   -2.5796  -25.3595 H   0  0  0  0  0  0  0  0  0  0  0  0
  -15.9999   -4.7142  -25.4782 H   0  0  0  0  0  0  0  0  0  0  0  0
  -16.2761   -6.3489  -35.5999 H   0  0  0  0  0  0  0  0  0  0  0  0
  -19.7102   -2.5655  -25.6747 H   0  0  0  0  0  0  0  0  0  0  0  0
  -17.8252   -7.6293  -34.1594 H   0  0  0  0  0  0  0  0  0  0  0  0
  -17.1963   -6.8384  -25.9109 H   0  0  0  0  0  0  0  0  0  0  0  0
  -17.1547   -4.8887  -37.3862 H   0  0  0  0  0  0  0  0  0  0  0  0
  -21.1771   -5.9863  -36.2962 H   0  0  0  0  0  0  0  0  0  0  0  0
  -22.8656   -2.1929  -29.1551 H   0  0  0  0  0  0  0  0  0  0  0  0
  -23.4043   -0.5901  -31.8063 H   0  0  0  0  0  0  0  0  0  0  0  0
  -24.5559   -1.2244  -30.6099 H   0  0  0  0  0  0  0  0  0  0  0  0
  -24.7409   -1.6420  -32.3231 H   0  0  0  0  0  0  0  0  0  0  0  0
  -24.7518   -6.4798  -23.5116 H   0  0  0  0  0  0  0  0  0  0  0  0
  -24.0970   -6.2026  -21.8819 H   0  0  0  0  0  0  0  0  0  0  0  0
  -25.8509   -6.2349  -22.1656 H   0  0  0  0  0  0  0  0  0  0  0  0
  -25.0709   -2.5521  -21.7435 H   0  0  0  0  0  0  0  0  0  0  0  0
  -24.2500   -3.8251  -20.8577 H   0  0  0  0  0  0  0  0  0  0  0  0
  -26.0148   -3.8940  -21.0594 H   0  0  0  0  0  0  0  0  0  0  0  0
  -25.9583   -2.9590  -24.0625 H   0  0  0  0  0  0  0  0  0  0  0  0
  -25.8194   -4.5606  -24.8193 H   0  0  0  0  0  0  0  0  0  0  0  0
  -26.9595   -4.2792  -23.4839 H   0  0  0  0  0  0  0  0  0  0  0  0
  -19.6175   -9.1228  -26.5249 H   0  0  0  0  0  0  0  0  0  0  0  0
  -18.4570   -8.3850  -25.3774 H   0  0  0  0  0  0  0  0  0  0  0  0
  -18.2493   -8.1551  -27.1336 H   0  0  0  0  0  0  0  0  0  0  0  0
  -21.5835   -7.4714  -34.5526 H   0  0  0  0  0  0  0  0  0  0  0  0
  -20.3738   -8.7418  -34.3664 H   0  0  0  0  0  0  0  0  0  0  0  0
  -22.8866   -3.8352  -27.4582 H   0  0  0  0  0  0  0  0  0  0  0  0
  -21.4826   -2.7771  -27.2683 H   0  0  0  0  0  0  0  0  0  0  0  0
  -21.6917   -5.7051  -26.3418 H   0  0  0  0  0  0  0  0  0  0  0  0
  -19.8113   -7.9547  -32.2991 H   0  0  0  0  0  0  0  0  0  0  0  0
  -20.4928   -4.9322  -28.6463 H   0  0  0  0  0  0  0  0  0  0  0  0
  -21.5548   -3.5443  -24.3603 H   0  0  0  0  0  0  0  0  0  0  0  0
  1  2  2  0  0  0  0
  1  4  1  0  0  0  0
  2  6  1  0  0  0  0
  3  5  1  0  0  0  0
  3  7  2  0  0  0  0
  4 10  2  0  0  0  0
  5  9  2  0  0  0  0
  6 11  2  0  0  0  0
  7 12  1  0  0  0  0
  8  9  1  0  0  0  0
  8 12  2  0  0  0  0
  9 24  1  0  0  0  0
 10 11  1  0  0  0  0
 10 26  1  0  0  0  0
 11 36  1  0  0  0  0
 12 38  1  0  0  0  0
 13 28  1  0  0  0  0
 13 29  2  0  0  0  0
 13 32  1  0  0  0  0
 14 28  2  0  0  0  0
 14 30  1  0  0  0  0
 14 31  1  0  0  0  0
 15 16  2  0  0  0  0
 15 17  1  0  0  0  0
 16 31  1  0  0  0  0
 16 33  1  0  0  0  0
 17 19  1  0  0  0  0
 17 30  2  0  0  0  0
 18 34  1  0  0  0  0
 18 35  2  0  0  0  0
 18 37  1  0  0  0  0
 20 27  1  0  0  0  0
 21 27  1  0  0  0  0
 22 27  1  0  0  0  0
 23 36  1  0  0  0  0
 24 32  1  0  0  0  0
 25 26  1  0  0  0  0
 25 33  1  0  0  0  0
 26 34  1  0  0  0  0
 27 37  1  0  0  0  0
 29 31  1  0  0  0  0
  1 39  1  0  0  0  0
  2 40  1  0  0  0  0
  3 41  1  0  0  0  0
  4 42  1  0  0  0  0
  5 43  1  0  0  0  0
  6 44  1  0  0  0  0
  7 45  1  0  0  0  0
  8 46  1  0  0  0  0
 15 47  1  0  0  0  0
 19 48  1  0  0  0  0
 19 49  1  0  0  0  0
 19 50  1  0  0  0  0
 20 51  1  0  0  0  0
 20 52  1  0  0  0  0
 20 53  1  0  0  0  0
 21 54  1  0  0  0  0
 21 55  1  0  0  0  0
 21 56  1  0  0  0  0
 22 57  1  0  0  0  0
 22 58  1  0  0  0  0
 22 59  1  0  0  0  0
 23 60  1  0  0  0  0
 23 61  1  0  0  0  0
 23 62  1  0  0  0  0
 24 63  1  0  0  0  0
 24 64  1  0  0  0  0
 25 65  1  0  0  0  0
 25 66  1  0  0  0  0
 26 67  1  0  0  0  0
 32 68  1  0  0  0  0
 33 69  1  0  0  0  0
 34 70  1  0  0  0  0
M  END
> <SMILES>
COc1ccccc1C(CNc1cc(nc2nc(nn12)NCc1cccc(c1)Cl)C)NC(=O)OC(C)(C)C

> <FORMATTED_ID>
H3D-008377

> <MOLFORMULA>
C27H32ClN7O3

> <Exact Mass>
537.23

> <XLogP>
5.62

> <TPSA_NOPS>
114.7

> <s_m_source_file>
ligprep_h3d.sdf

> <i_m_source_file_index>
2747

> <i_lp_mmshare_version>
55123

> <i_f3d_flags>
0

> <s_epik_input>
W0NIM11PYzFbY0hdW2NIXVtjSF1bY0hdYzFbQ0BASF0oW05IXUMoPU8pT0MoW0NIM10pKFtDSDNdKVtDSDNdKVtDSDJdW05IXWMoW2NIXWMobjIpW0NIM10pbihjMjMpbmMobjMpW05IXVtDSDJdYzRbY0hdW2NIXVtjSF1jKENsKVtjSF00

> <s_epik_cmdline>
J2VwaWtfcHl0aG9uJywgJy1waHQnLCAnMC41JywgJy1waCcsICc3LjUnLCAnLXRuJywgJzgnLCAnLW1hJywgJzUwMCcsICctaW1hZScsICc8aW5maWxlLm1hZT4nLCAnLW9tYWUnLCAnPG91dGZpbGUubWFlPic=

> <r_lp_tautomer_probability>
1

> <r_epik_Ionization_Penalty>
0.000245706

> <r_epik_Ionization_Penalty_Charging>
0

> <r_epik_Ionization_Penalty_Neutral>
0.000245706

> <r_epik_State_Penalty>
-0

> <r_epik_Charging_Adjusted_Penalty>
0

> <i_epik_Tot_Q>
0

> <i_epik_Tot_abs_Q>
0

> <s_epik_Chemistry_Notes>
This compound has an ester and may undergo hydrolysis at high or low pH.

> <s_lp_Force_Field>
S-OPLS

> <r_lp_Energy>
31.4872

> <b_lp_Chiralities_Consistent>
1

> <s_lp_Variant>
ligprep_h3d.sdf:2747-1

> <ROCS_ShapeQuery>
_7L13

> <ROCS_TanimotoCombo>
0.733 

> <ROCS_ShapeTanimoto>
0.685 

> <ROCS_ColorTanimoto>
0.048 

> <ROCS_RefTversky>
0.827 

> <ROCS_RefColorTversky>
0.110 

> <ROCS_RefTverskyCombo>
0.937 

> <ROCS_FitTversky>
0.799 

> <ROCS_FitColorTversky>
0.079 

> <ROCS_FitTverskyCombo>
0.878 

> <ROCS_ColorScore>
-1.014

> <ROCS_Overlap>
1376.365

> <ROCS_Rank>
30                  

$$$$
ligprep_h3d.sdf:5342_591
  -OEChem-08212117123D

 69 74  0     0  0  0  0  0  0999 V2000
  -19.8789   -6.5940  -33.6024 C   0  0  0  0  0  0  0  0  0  0  0  0
  -18.6471   -4.5936  -34.1666 C   0  0  0  0  0  0  0  0  0  0  0  0
  -19.8298   -7.0004  -34.9358 C   0  0  0  0  0  0  0  0  0  0  0  0
  -18.5979   -5.0000  -35.5000 C   0  0  0  0  0  0  0  0  0  0  0  0
  -23.0015   -4.0339  -28.8784 C   0  0  0  0  0  0  0  0  0  0  0  0
  -20.2212   -4.3760  -29.2238 C   0  0  0  0  0  0  0  0  0  0  0  0
  -14.9241   -6.5531  -25.2600 C   0  0  0  0  0  0  0  0  0  0  0  0
  -14.8310   -5.3276  -25.8765 C   0  0  0  0  0  0  0  0  0  0  0  0
  -22.1695   -4.2207  -27.7814 C   0  0  0  0  0  0  0  0  0  0  0  0
  -19.2877   -5.3906  -33.2178 C   0  0  0  0  0  0  0  0  0  0  0  0
  -20.7952   -4.3893  -27.9608 C   0  0  0  0  0  0  0  0  0  0  0  0
  -22.4376   -4.0184  -30.1556 C   0  0  0  0  0  0  0  0  0  0  0  0
  -21.0567   -4.1884  -30.3266 C   0  0  0  0  0  0  0  0  0  0  0  0
  -19.1892   -6.2034  -35.8846 C   0  0  0  0  0  0  0  0  0  0  0  0
  -16.9383   -6.0006  -25.7141 C   0  0  0  0  0  0  0  0  0  0  0  0
  -18.3426   -5.8510  -25.9102 C   0  0  0  0  0  0  0  0  0  0  0  0
  -17.9309   -3.6972  -26.9738 C   0  0  0  0  0  0  0  0  0  0  0  0
  -16.6072   -3.8300  -26.7925 C   0  0  0  0  0  0  0  0  0  0  0  0
  -18.8453   -4.7489  -26.5151 C   0  0  0  0  0  0  0  0  0  0  0  0
  -23.5110   -5.4467  -26.0319 C   0  0  0  0  0  0  0  0  0  0  0  0
  -23.1867   -2.9472  -25.8557 C   0  0  0  0  0  0  0  0  0  0  0  0
  -21.1627   -4.5014  -25.6504 C   0  0  0  0  0  0  0  0  0  0  0  0
  -23.9893   -5.4775  -24.5847 C   0  0  0  0  0  0  0  0  0  0  0  0
  -23.6671   -2.9961  -24.4098 C   0  0  0  0  0  0  0  0  0  0  0  0
  -22.5530   -4.2740  -26.3160 C   0  0  0  0  0  0  0  0  0  0  0  0
  -23.4644   -2.4909  -31.6618 C   0  0  0  0  0  0  0  0  0  0  0  0
  -19.3395   -4.9532  -31.7834 C   0  0  0  0  0  0  0  0  0  0  0  0
  -25.2229   -4.1714  -22.8577 C   0  0  0  0  0  0  0  0  0  0  0  0
  -26.5885   -4.8270  -22.9172 C   0  0  0  0  0  0  0  0  0  0  0  0
  -16.2291   -6.9642  -25.1622 N   0  0  0  0  0  0  0  0  0  0  0  0
  -16.1226   -4.9720  -26.1685 N   0  0  0  0  0  0  0  0  0  0  0  0
  -20.1647   -4.5596  -26.7239 N   0  0  0  0  0  0  0  0  0  0  0  0
  -24.6208   -4.1523  -24.2359 N   0  3  0  0  0  0  0  0  0  0  0  0
  -27.1786   -4.8158  -21.6240 O   0  0  0  0  0  0  0  0  0  0  0  0
  -23.2463   -3.8346  -31.2377 O   0  0  0  0  0  0  0  0  0  0  0  0
  -20.5136   -4.1713  -31.5775 O   0  0  0  0  0  0  0  0  0  0  0  0
  -19.1396   -6.5949  -37.1647 F   0  0  0  0  0  0  0  0  0  0  0  0
  -20.3810   -7.2213  -32.8705 H   0  0  0  0  0  0  0  0  0  0  0  0
  -18.1834   -3.6546  -33.8761 H   0  0  0  0  0  0  0  0  0  0  0  0
  -20.2894   -7.9374  -35.2353 H   0  0  0  0  0  0  0  0  0  0  0  0
  -18.0997   -4.3796  -36.2390 H   0  0  0  0  0  0  0  0  0  0  0  0
  -24.0713   -3.9020  -28.7484 H   0  0  0  0  0  0  0  0  0  0  0  0
  -19.1543   -4.5056  -29.3700 H   0  0  0  0  0  0  0  0  0  0  0  0
  -14.1152   -7.1605  -24.8811 H   0  0  0  0  0  0  0  0  0  0  0  0
  -13.9870   -4.6984  -26.1237 H   0  0  0  0  0  0  0  0  0  0  0  0
  -18.9974   -6.6439  -25.5622 H   0  0  0  0  0  0  0  0  0  0  0  0
  -18.3365   -2.8154  -27.4581 H   0  0  0  0  0  0  0  0  0  0  0  0
  -15.8925   -3.0817  -27.1128 H   0  0  0  0  0  0  0  0  0  0  0  0
  -23.0302   -6.4037  -26.2734 H   0  0  0  0  0  0  0  0  0  0  0  0
  -24.3907   -5.3814  -26.6863 H   0  0  0  0  0  0  0  0  0  0  0  0
  -24.0424   -2.6959  -26.4969 H   0  0  0  0  0  0  0  0  0  0  0  0
  -22.4745   -2.1198  -25.9715 H   0  0  0  0  0  0  0  0  0  0  0  0
  -20.9044   -3.6893  -24.9598 H   0  0  0  0  0  0  0  0  0  0  0  0
  -21.1337   -5.4364  -25.0777 H   0  0  0  0  0  0  0  0  0  0  0  0
  -24.7547   -6.2495  -24.4529 H   0  0  0  0  0  0  0  0  0  0  0  0
  -23.1725   -5.6543  -23.8773 H   0  0  0  0  0  0  0  0  0  0  0  0
  -22.8448   -3.1322  -23.6996 H   0  0  0  0  0  0  0  0  0  0  0  0
  -24.2134   -2.0809  -24.1587 H   0  0  0  0  0  0  0  0  0  0  0  0
  -24.1256   -2.4854  -32.5317 H   0  0  0  0  0  0  0  0  0  0  0  0
  -22.5073   -2.0280  -31.9152 H   0  0  0  0  0  0  0  0  0  0  0  0
  -23.9326   -1.9328  -30.8476 H   0  0  0  0  0  0  0  0  0  0  0  0
  -19.3635   -5.8174  -31.1109 H   0  0  0  0  0  0  0  0  0  0  0  0
  -18.4592   -4.3532  -31.5289 H   0  0  0  0  0  0  0  0  0  0  0  0
  -24.5260   -4.7276  -22.2244 H   0  0  0  0  0  0  0  0  0  0  0  0
  -25.2879   -3.1307  -22.5293 H   0  0  0  0  0  0  0  0  0  0  0  0
  -27.2418   -4.2642  -23.5913 H   0  0  0  0  0  0  0  0  0  0  0  0
  -26.5255   -5.8613  -23.2707 H   0  0  0  0  0  0  0  0  0  0  0  0
  -25.4013   -4.0048  -24.8906 H   0  0  0  0  0  0  0  0  0  0  0  0
  -28.0463   -5.2428  -21.7086 H   0  0  0  0  0  0  0  0  0  0  0  0
  1  3  1  0  0  0  0
  1 10  2  0  0  0  0
  2  4  2  0  0  0  0
  2 10  1  0  0  0  0
  3 14  2  0  0  0  0
  4 14  1  0  0  0  0
  5  9  1  0  0  0  0
  5 12  2  0  0  0  0
  6 11  1  0  0  0  0
  6 13  2  0  0  0  0
  7  8  2  0  0  0  0
  7 30  1  0  0  0  0
  8 31  1  0  0  0  0
  9 11  2  0  0  0  0
  9 25  1  0  0  0  0
 10 27  1  0  0  0  0
 11 32  1  0  0  0  0
 12 13  1  0  0  0  0
 12 35  1  0  0  0  0
 13 36  1  0  0  0  0
 14 37  1  0  0  0  0
 15 16  1  0  0  0  0
 15 30  2  0  0  0  0
 15 31  1  0  0  0  0
 16 19  2  0  0  0  0
 17 18  2  0  0  0  0
 17 19  1  0  0  0  0
 18 31  1  0  0  0  0
 19 32  1  0  0  0  0
 20 23  1  0  0  0  0
 20 25  1  0  0  0  0
 21 24  1  0  0  0  0
 21 25  1  0  0  0  0
 22 25  1  0  0  0  0
 22 32  1  0  0  0  0
 23 33  1  0  0  0  0
 24 33  1  0  0  0  0
 26 35  1  0  0  0  0
 27 36  1  0  0  0  0
 28 29  1  0  0  0  0
 28 33  1  0  0  0  0
 29 34  1  0  0  0  0
  1 38  1  0  0  0  0
  2 39  1  0  0  0  0
  3 40  1  0  0  0  0
  4 41  1  0  0  0  0
  5 42  1  0  0  0  0
  6 43  1  0  0  0  0
  7 44  1  0  0  0  0
  8 45  1  0  0  0  0
 16 46  1  0  0  0  0
 17 47  1  0  0  0  0
 18 48  1  0  0  0  0
 20 49  1  0  0  0  0
 20 50  1  0  0  0  0
 21 51  1  0  0  0  0
 21 52  1  0  0  0  0
 22 53  1  0  0  0  0
 22 54  1  0  0  0  0
 23 55  1  0  0  0  0
 23 56  1  0  0  0  0
 24 57  1  0  0  0  0
 24 58  1  0  0  0  0
 26 59  1  0  0  0  0
 26 60  1  0  0  0  0
 26 61  1  0  0  0  0
 27 62  1  0  0  0  0
 27 63  1  0  0  0  0
 28 64  1  0  0  0  0
 28 65  1  0  0  0  0
 29 66  1  0  0  0  0
 29 67  1  0  0  0  0
 33 68  1  0  0  0  0
 34 69  1  0  0  0  0
M  CHG  1  33   1
M  END
> <SMILES>
COc1cc2c(cc1OCc1ccc(cc1)F)N(CC12CCN(CCO)CC1)c1ccn2ccnc2c1

> <FORMATTED_ID>
H3D-014970

> <MOLFORMULA>
C29H31FN4O3

> <Exact Mass>
502.24

> <XLogP>
5.36

> <TPSA_NOPS>
62.5

> <s_m_source_file>
ligprep_h3d.sdf

> <i_m_source_file_index>
5342

> <i_lp_mmshare_version>
55123

> <i_f3d_flags>
0

> <s_epik_input>
W2NIXTFbY0hdYyhGKVtjSF1bY0hdYzFbQ0gyXU9jKGMoW2NIXTIpT1tDSDNdKVtjSF1jKE4oW0NIMl0zKWMoW2NIXVtjSF00KVtjSF1jKG40NSluW2NIXVtjSF01KWMyQzM2W0NIMl1bQ0gyXU4oW0NIMl1bQ0gyXTYpW0NIMl1bQ0gyXVtPSF0=

> <s_epik_cmdline>
J2VwaWtfcHl0aG9uJywgJy1waHQnLCAnMC41JywgJy1waCcsICc3LjUnLCAnLXRuJywgJzgnLCAnLW1hJywgJzUwMCcsICctaW1hZScsICc8aW5maWxlLm1hZT4nLCAnLW9tYWUnLCAnPG91dGZpbGUubWFlPic=

> <r_lp_tautomer_probability>
1

> <r_epik_Ionization_Penalty>
0.448959

> <r_epik_Ionization_Penalty_Charging>
0.448957

> <r_epik_Ionization_Penalty_Neutral>
1.47262e-06

> <r_epik_State_Penalty>
0.473113

> <r_epik_Charging_Adjusted_Penalty>
0.92207

> <i_epik_Tot_Q>
1

> <i_epik_Tot_abs_Q>
1

> <s_lp_Force_Field>
S-OPLS

> <r_lp_Energy>
69.7692

> <b_lp_Chiralities_Consistent>
1

> <s_lp_Variant>
ligprep_h3d.sdf:5342-2

> <ROCS_ShapeQuery>
_7L13

> <ROCS_TanimotoCombo>
0.770 

> <ROCS_ShapeTanimoto>
0.686 

> <ROCS_ColorTanimoto>
0.084 

> <ROCS_RefTversky>
0.826 

> <ROCS_RefColorTversky>
0.185 

> <ROCS_RefTverskyCombo>
1.011 

> <ROCS_FitTversky>
0.802 

> <ROCS_FitColorTversky>
0.132 

> <ROCS_FitTverskyCombo>
0.934 

> <ROCS_ColorScore>
-1.700

> <ROCS_Overlap>
1374.451

> <ROCS_Rank>
31                  

$$$$
ligprep_h3d.sdf:5138_563
  -OEChem-08212117123D

 67 72  0     0  0  0  0  0  0999 V2000
  -19.7465   -6.6587  -35.7134 C   0  0  0  0  0  0  0  0  0  0  0  0
  -20.4081   -7.3907  -34.7274 C   0  0  0  0  0  0  0  0  0  0  0  0
  -19.0687   -5.4873  -35.3756 C   0  0  0  0  0  0  0  0  0  0  0  0
  -20.3921   -6.9512  -33.4037 C   0  0  0  0  0  0  0  0  0  0  0  0
  -19.0527   -5.0478  -34.0519 C   0  0  0  0  0  0  0  0  0  0  0  0
  -23.1999   -4.0877  -28.6612 C   0  0  0  0  0  0  0  0  0  0  0  0
  -20.4644   -4.6143  -29.0742 C   0  0  0  0  0  0  0  0  0  0  0  0
  -14.6769   -4.8634  -25.1279 C   0  0  0  0  0  0  0  0  0  0  0  0
  -15.0258   -5.9815  -25.8480 C   0  0  0  0  0  0  0  0  0  0  0  0
  -22.3422   -4.2966  -27.5880 C   0  0  0  0  0  0  0  0  0  0  0  0
  -19.7144   -5.7797  -33.0659 C   0  0  0  0  0  0  0  0  0  0  0  0
  -20.9804   -4.5573  -27.7845 C   0  0  0  0  0  0  0  0  0  0  0  0
  -22.6789   -4.1366  -29.9534 C   0  0  0  0  0  0  0  0  0  0  0  0
  -21.3195   -4.3995  -30.1587 C   0  0  0  0  0  0  0  0  0  0  0  0
  -16.7579   -4.6274  -25.5544 C   0  0  0  0  0  0  0  0  0  0  0  0
  -18.1248   -4.2541  -25.7127 C   0  0  0  0  0  0  0  0  0  0  0  0
  -18.5065   -6.3096  -26.9652 C   0  0  0  0  0  0  0  0  0  0  0  0
  -17.2208   -6.6682  -26.8212 C   0  0  0  0  0  0  0  0  0  0  0  0
  -18.9874   -5.0488  -26.3891 C   0  0  0  0  0  0  0  0  0  0  0  0
  -23.4409   -3.0916  -25.6434 C   0  0  0  0  0  0  0  0  0  0  0  0
  -23.4948   -5.6012  -25.7805 C   0  0  0  0  0  0  0  0  0  0  0  0
  -23.8755   -3.2073  -24.1797 C   0  0  0  0  0  0  0  0  0  0  0  0
  -23.9627   -5.6262  -24.3208 C   0  0  0  0  0  0  0  0  0  0  0  0
  -21.2401   -4.4015  -25.4962 C   0  0  0  0  0  0  0  0  0  0  0  0
  -22.6736   -4.3392  -26.1163 C   0  0  0  0  0  0  0  0  0  0  0  0
  -23.6485   -2.5702  -31.4574 C   0  0  0  0  0  0  0  0  0  0  0  0
  -19.6969   -5.3063  -31.6422 C   0  0  0  0  0  0  0  0  0  0  0  0
  -25.1730   -4.4688  -22.5903 C   0  0  0  0  0  0  0  0  0  0  0  0
  -26.3696   -5.3901  -22.4787 C   0  0  0  0  0  0  0  0  0  0  0  0
  -15.7515   -4.0297  -24.9495 N   0  0  0  0  0  0  0  0  0  0  0  0
  -16.3608   -5.8315  -26.1222 N   0  0  0  0  0  0  0  0  0  0  0  0
  -20.2950   -4.7395  -26.5676 N   0  0  0  0  0  0  0  0  0  0  0  0
  -24.7002   -4.4049  -23.9731 N   0  0  0  0  0  0  0  0  0  0  0  0
  -23.5058   -3.9181  -31.0148 O   0  0  0  0  0  0  0  0  0  0  0  0
  -20.8129   -4.4465  -31.4240 O   0  0  0  0  0  0  0  0  0  0  0  0
  -27.2149   -5.1783  -23.5184 F   0  0  0  0  0  0  0  0  0  0  0  0
  -27.0618   -5.0849  -21.3514 F   0  0  0  0  0  0  0  0  0  0  0  0
  -19.7580   -7.0018  -36.7438 H   0  0  0  0  0  0  0  0  0  0  0  0
  -20.9350   -8.3034  -34.9901 H   0  0  0  0  0  0  0  0  0  0  0  0
  -18.5526   -4.9177  -36.1427 H   0  0  0  0  0  0  0  0  0  0  0  0
  -20.9105   -7.5278  -32.6422 H   0  0  0  0  0  0  0  0  0  0  0  0
  -18.5222   -4.1339  -33.7980 H   0  0  0  0  0  0  0  0  0  0  0  0
  -24.2530   -3.8798  -28.5001 H   0  0  0  0  0  0  0  0  0  0  0  0
  -19.4152   -4.8276  -29.2539 H   0  0  0  0  0  0  0  0  0  0  0  0
  -13.7039   -4.6167  -24.7287 H   0  0  0  0  0  0  0  0  0  0  0  0
  -14.4596   -6.8413  -26.1788 H   0  0  0  0  0  0  0  0  0  0  0  0
  -18.4554   -3.3166  -25.2762 H   0  0  0  0  0  0  0  0  0  0  0  0
  -19.1999   -6.9442  -27.5066 H   0  0  0  0  0  0  0  0  0  0  0  0
  -16.8185   -7.5879  -27.2282 H   0  0  0  0  0  0  0  0  0  0  0  0
  -24.3371   -2.9489  -26.2602 H   0  0  0  0  0  0  0  0  0  0  0  0
  -22.8333   -2.1885  -25.7711 H   0  0  0  0  0  0  0  0  0  0  0  0
  -22.9139   -6.5099  -25.9946 H   0  0  0  0  0  0  0  0  0  0  0  0
  -24.3820   -5.6575  -26.4288 H   0  0  0  0  0  0  0  0  0  0  0  0
  -22.9995   -3.2179  -23.5235 H   0  0  0  0  0  0  0  0  0  0  0  0
  -24.4563   -2.3140  -23.9289 H   0  0  0  0  0  0  0  0  0  0  0  0
  -24.6159   -6.5007  -24.1916 H   0  0  0  0  0  0  0  0  0  0  0  0
  -23.1021   -5.7714  -23.6513 H   0  0  0  0  0  0  0  0  0  0  0  0
  -20.9540   -3.4581  -25.0180 H   0  0  0  0  0  0  0  0  0  0  0  0
  -21.1808   -5.1833  -24.7273 H   0  0  0  0  0  0  0  0  0  0  0  0
  -24.3337   -2.5358  -32.3079 H   0  0  0  0  0  0  0  0  0  0  0  0
  -22.6714   -2.1753  -31.7468 H   0  0  0  0  0  0  0  0  0  0  0  0
  -24.0549   -1.9690  -30.6406 H   0  0  0  0  0  0  0  0  0  0  0  0
  -19.7558   -6.1511  -30.9476 H   0  0  0  0  0  0  0  0  0  0  0  0
  -18.7735   -4.7577  -31.4273 H   0  0  0  0  0  0  0  0  0  0  0  0
  -25.4524   -3.4633  -22.2595 H   0  0  0  0  0  0  0  0  0  0  0  0
  -24.3696   -4.8185  -21.9338 H   0  0  0  0  0  0  0  0  0  0  0  0
  -26.0989   -6.4496  -22.4468 H   0  0  0  0  0  0  0  0  0  0  0  0
  1  2  2  0  0  0  0
  1  3  1  0  0  0  0
  2  4  1  0  0  0  0
  3  5  2  0  0  0  0
  4 11  2  0  0  0  0
  5 11  1  0  0  0  0
  6 10  1  0  0  0  0
  6 13  2  0  0  0  0
  7 12  1  0  0  0  0
  7 14  2  0  0  0  0
  8  9  2  0  0  0  0
  8 30  1  0  0  0  0
  9 31  1  0  0  0  0
 10 12  2  0  0  0  0
 10 25  1  0  0  0  0
 11 27  1  0  0  0  0
 12 32  1  0  0  0  0
 13 14  1  0  0  0  0
 13 34  1  0  0  0  0
 14 35  1  0  0  0  0
 15 16  1  0  0  0  0
 15 30  2  0  0  0  0
 15 31  1  0  0  0  0
 16 19  2  0  0  0  0
 17 18  2  0  0  0  0
 17 19  1  0  0  0  0
 18 31  1  0  0  0  0
 19 32  1  0  0  0  0
 20 22  1  0  0  0  0
 20 25  1  0  0  0  0
 21 23  1  0  0  0  0
 21 25  1  0  0  0  0
 22 33  1  0  0  0  0
 23 33  1  0  0  0  0
 24 25  1  0  0  0  0
 24 32  1  0  0  0  0
 26 34  1  0  0  0  0
 27 35  1  0  0  0  0
 28 29  1  0  0  0  0
 28 33  1  0  0  0  0
 29 36  1  0  0  0  0
 29 37  1  0  0  0  0
  1 38  1  0  0  0  0
  2 39  1  0  0  0  0
  3 40  1  0  0  0  0
  4 41  1  0  0  0  0
  5 42  1  0  0  0  0
  6 43  1  0  0  0  0
  7 44  1  0  0  0  0
  8 45  1  0  0  0  0
  9 46  1  0  0  0  0
 16 47  1  0  0  0  0
 17 48  1  0  0  0  0
 18 49  1  0  0  0  0
 20 50  1  0  0  0  0
 20 51  1  0  0  0  0
 21 52  1  0  0  0  0
 21 53  1  0  0  0  0
 22 54  1  0  0  0  0
 22 55  1  0  0  0  0
 23 56  1  0  0  0  0
 23 57  1  0  0  0  0
 24 58  1  0  0  0  0
 24 59  1  0  0  0  0
 26 60  1  0  0  0  0
 26 61  1  0  0  0  0
 26 62  1  0  0  0  0
 27 63  1  0  0  0  0
 27 64  1  0  0  0  0
 28 65  1  0  0  0  0
 28 66  1  0  0  0  0
 29 67  1  0  0  0  0
M  END
> <SMILES>
COc1cc2c(cc1OCc1ccccc1)N(CC12CCN(CC1)CC(F)F)c1ccn2ccnc2c1

> <FORMATTED_ID>
H3D-013849

> <MOLFORMULA>
C29H30F2N4O2

> <Exact Mass>
504.23

> <XLogP>
6.52

> <TPSA_NOPS>
42.2

> <s_m_source_file>
ligprep_h3d.sdf

> <i_m_source_file_index>
5138

> <i_lp_mmshare_version>
55123

> <i_f3d_flags>
0

> <s_epik_input>
W2NIXTFbY0hdW2NIXVtjSF1bY0hdYzFbQ0gyXU9jKGMoW2NIXTIpT1tDSDNdKVtjSF1jKGMyQzM0W0NIMl1bQ0gyXU4oW0NIMl1bQ0gyXTQpW0NIMl1bQ0hdKEYpRilOKFtDSDJdMyljKFtjSF1bY0hdNSlbY0hdYyhuNTYpbltjSF1bY0hdNg==

> <s_epik_cmdline>
J2VwaWtfcHl0aG9uJywgJy1waHQnLCAnMC41JywgJy1waCcsICc3LjUnLCAnLXRuJywgJzgnLCAnLW1hJywgJzUwMCcsICctaW1hZScsICc8aW5maWxlLm1hZT4nLCAnLW9tYWUnLCAnPG91dGZpbGUubWFlPic=

> <r_lp_tautomer_probability>
1

> <r_epik_Ionization_Penalty>
0.620049

> <r_epik_Ionization_Penalty_Charging>
0.533906

> <r_epik_Ionization_Penalty_Neutral>
0.0861427

> <r_epik_State_Penalty>
0.587177

> <r_epik_Charging_Adjusted_Penalty>
1.12108

> <i_epik_Tot_Q>
0

> <i_epik_Tot_abs_Q>
0

> <s_lp_Force_Field>
S-OPLS

> <r_lp_Energy>
64.4127

> <b_lp_Chiralities_Consistent>
1

> <s_lp_Variant>
ligprep_h3d.sdf:5138-2

> <ROCS_ShapeQuery>
_7L13

> <ROCS_TanimotoCombo>
0.746 

> <ROCS_ShapeTanimoto>
0.683 

> <ROCS_ColorTanimoto>
0.063 

> <ROCS_RefTversky>
0.826 

> <ROCS_RefColorTversky>
0.125 

> <ROCS_RefTverskyCombo>
0.951 

> <ROCS_FitTversky>
0.798 

> <ROCS_FitColorTversky>
0.113 

> <ROCS_FitTverskyCombo>
0.912 

> <ROCS_ColorScore>
-1.132

> <ROCS_Overlap>
1373.457

> <ROCS_Rank>
32                  

$$$$
ligprep_h3d.sdf:1009_1769
  -OEChem-08212117123D

 62 67  0     1  0  0  0  0  0999 V2000
  -20.7893   -4.8781  -29.5870 C   0  0  0  0  0  0  0  0  0  0  0  0
  -21.6129   -4.2589  -30.5292 C   0  0  0  0  0  0  0  0  0  0  0  0
  -21.1138   -4.7569  -28.2139 C   0  0  0  0  0  0  0  0  0  0  0  0
  -22.2636   -4.0690  -27.7616 C   0  0  0  0  0  0  0  0  0  0  0  0
  -22.7111   -3.5588  -30.0808 C   0  0  0  0  0  0  0  0  0  0  0  0
  -23.0684   -3.4342  -28.7382 C   0  0  0  0  0  0  0  0  0  0  0  0
  -21.6678   -4.1091  -31.9275 C   0  0  0  0  0  0  0  0  0  0  0  0
  -19.3841   -8.0793  -35.6161 C   0  0  0  0  0  0  0  0  0  0  0  0
  -19.4692   -3.3151  -26.0817 C   0  0  0  0  0  0  0  0  0  0  0  0
  -19.3778   -5.6383  -24.9665 C   0  0  0  0  0  0  0  0  0  0  0  0
  -17.3044   -4.3519  -25.4411 C   0  0  0  0  0  0  0  0  0  0  0  0
  -20.1934   -5.4142  -27.2221 C   0  0  0  0  0  0  0  0  0  0  0  0
  -19.4914   -6.7974  -36.4064 C   0  0  0  0  0  0  0  0  0  0  0  0
  -20.1743   -5.8461  -35.4284 C   0  0  0  0  0  0  0  0  0  0  0  0
  -23.2257   -3.7468  -23.5203 C   0  0  0  0  0  0  0  0  0  0  0  0
  -23.8428   -3.4055  -25.9700 C   0  0  0  0  0  0  0  0  0  0  0  0
  -24.3129   -3.8796  -24.5912 C   0  0  1  0  0  0  0  0  0  0  0  0
  -21.8014   -3.6047  -24.0894 C   0  0  2  0  0  0  0  0  0  0  0  0
  -21.6330   -4.5101  -25.3503 C   0  0  2  0  0  0  0  0  0  0  0  0
  -19.7004   -6.3340  -34.0660 C   0  0  1  0  0  0  0  0  0  0  0  0
  -20.1657   -4.6693  -25.8647 C   0  0  0  0  0  0  0  0  0  0  0  0
  -24.8851   -5.3017  -24.6489 C   0  0  0  0  0  0  0  0  0  0  0  0
  -20.8057   -3.8344  -22.9502 C   0  0  0  0  0  0  0  0  0  0  0  0
  -20.6705   -6.0136  -32.9443 C   0  0  0  0  0  0  0  0  0  0  0  0
  -22.7132   -3.3736  -32.3178 N   0  0  0  0  0  0  0  0  0  0  0  0
  -18.0873   -3.3402  -25.9784 N   0  0  0  0  0  0  0  0  0  0  0  0
  -18.0064   -5.4378  -24.9377 N   0  0  0  0  0  0  0  0  0  0  0  0
  -19.5413   -7.7509  -34.2734 N   0  0  0  0  0  0  0  0  0  0  0  0
  -22.5713   -4.0127  -26.3967 N   0  0  3  0  0  0  0  0  0  0  0  0
  -19.1583   -9.1834  -36.0866 O   0  0  0  0  0  0  0  0  0  0  0  0
  -20.0726   -2.2869  -26.3884 O   0  0  0  0  0  0  0  0  0  0  0  0
  -19.9047   -6.5845  -24.3795 O   0  0  0  0  0  0  0  0  0  0  0  0
  -16.0765   -4.2728  -25.3774 O   0  0  0  0  0  0  0  0  0  0  0  0
  -23.3716   -3.0245  -31.1443 O   0  0  0  0  0  0  0  0  0  0  0  0
  -20.8327   -4.5887  -32.8586 O   0  0  0  0  0  0  0  0  0  0  0  0
  -24.1011   -2.6410  -28.4204 F   0  0  0  0  0  0  0  0  0  0  0  0
  -19.9086   -5.4317  -29.9017 H   0  0  0  0  0  0  0  0  0  0  0  0
  -20.5296   -6.4535  -27.0923 H   0  0  0  0  0  0  0  0  0  0  0  0
  -19.1774   -5.4656  -27.6407 H   0  0  0  0  0  0  0  0  0  0  0  0
  -18.5037   -6.4357  -36.7021 H   0  0  0  0  0  0  0  0  0  0  0  0
  -20.1069   -6.9780  -37.2930 H   0  0  0  0  0  0  0  0  0  0  0  0
  -19.8139   -4.8263  -35.6022 H   0  0  0  0  0  0  0  0  0  0  0  0
  -21.2601   -5.8478  -35.5429 H   0  0  0  0  0  0  0  0  0  0  0  0
  -23.4567   -2.8726  -22.8795 H   0  0  0  0  0  0  0  0  0  0  0  0
  -23.2639   -4.6232  -22.8416 H   0  0  0  0  0  0  0  0  0  0  0  0
  -24.6125   -3.6624  -26.7334 H   0  0  0  0  0  0  0  0  0  0  0  0
  -23.8499   -2.2975  -25.9852 H   0  0  0  0  0  0  0  0  0  0  0  0
  -25.1705   -3.2134  -24.2866 H   0  0  0  0  0  0  0  0  0  0  0  0
  -21.6966   -2.5455  -24.3931 H   0  0  0  0  0  0  0  0  0  0  0  0
  -21.9977   -5.5128  -25.0824 H   0  0  0  0  0  0  0  0  0  0  0  0
  -18.7079   -5.9068  -33.8255 H   0  0  0  0  0  0  0  0  0  0  0  0
  -24.1036   -6.0014  -24.9394 H   0  0  0  0  0  0  0  0  0  0  0  0
  -25.6921   -5.3444  -25.3779 H   0  0  0  0  0  0  0  0  0  0  0  0
  -25.2713   -5.5829  -23.6709 H   0  0  0  0  0  0  0  0  0  0  0  0
  -20.8679   -4.8665  -22.6122 H   0  0  0  0  0  0  0  0  0  0  0  0
  -21.0388   -3.1704  -22.1208 H   0  0  0  0  0  0  0  0  0  0  0  0
  -19.7959   -3.6314  -23.3000 H   0  0  0  0  0  0  0  0  0  0  0  0
  -20.2873   -6.3828  -31.9884 H   0  0  0  0  0  0  0  0  0  0  0  0
  -21.6464   -6.4683  -33.1390 H   0  0  0  0  0  0  0  0  0  0  0  0
  -17.5931   -2.5284  -26.3354 H   0  0  0  0  0  0  0  0  0  0  0  0
  -17.4587   -6.1377  -24.4456 H   0  0  0  0  0  0  0  0  0  0  0  0
  -19.5709   -8.4377  -33.5304 H   0  0  0  0  0  0  0  0  0  0  0  0
  1  2  2  0  0  0  0
  1  3  1  0  0  0  0
  2  5  1  0  0  0  0
  2  7  1  0  0  0  0
  3  4  2  0  0  0  0
  3 12  1  0  0  0  0
  4  6  1  0  0  0  0
  4 29  1  0  0  0  0
  5  6  2  0  0  0  0
  5 34  1  0  0  0  0
  6 36  1  0  0  0  0
  7 25  2  0  0  0  0
  7 35  1  0  0  0  0
  8 13  1  0  0  0  0
  8 28  1  0  0  0  0
  8 30  2  0  0  0  0
  9 21  1  0  0  0  0
  9 26  1  0  0  0  0
  9 31  2  0  0  0  0
 10 21  1  0  0  0  0
 10 27  1  0  0  0  0
 10 32  2  0  0  0  0
 11 26  1  0  0  0  0
 11 27  1  0  0  0  0
 11 33  2  0  0  0  0
 12 21  1  0  0  0  0
 13 14  1  0  0  0  0
 14 20  1  0  0  0  0
 15 17  1  0  0  0  0
 15 18  1  0  0  0  0
 16 17  1  0  0  0  0
 16 29  1  0  0  0  0
 17 22  1  0  0  0  0
 18 19  1  0  0  0  0
 18 23  1  0  0  0  0
 19 21  1  0  0  0  0
 19 29  1  0  0  0  0
 20 24  1  0  0  0  0
 20 28  1  0  0  0  0
 24 35  1  0  0  0  0
 25 34  1  0  0  0  0
  1 37  1  0  0  0  0
 12 38  1  0  0  0  0
 12 39  1  0  0  0  0
 13 40  1  0  0  0  0
 13 41  1  0  0  0  0
 14 42  1  0  0  0  0
 14 43  1  0  0  0  0
 15 44  1  0  0  0  0
 15 45  1  0  0  0  0
 16 46  1  0  0  0  0
 16 47  1  0  0  0  0
 17 48  1  0  0  0  0
 18 49  1  0  0  0  0
 19 50  1  0  0  0  0
 20 51  1  0  0  0  0
 22 52  1  0  0  0  0
 22 53  1  0  0  0  0
 22 54  1  0  0  0  0
 23 55  1  0  0  0  0
 23 56  1  0  0  0  0
 23 57  1  0  0  0  0
 24 58  1  0  0  0  0
 24 59  1  0  0  0  0
 26 60  1  0  0  0  0
 27 61  1  0  0  0  0
 28 62  1  0  0  0  0
M  END
> <SMILES>
C[C@H]1C[C@@H](C)[C@H]2N(C1)c1c(cc3c(noc3c1F)OC[C@@H]1CCC(=O)N1)CC21C(=O)NC(=O)NC1=O

> <FORMATTED_ID>
H3D-006168

> <MOLFORMULA>
C24H26FN5O6

> <Exact Mass>
499.19

> <XLogP>
1.25

> <TPSA_NOPS>
143.2

> <s_m_source_file>
ligprep_h3d.sdf

> <i_m_source_file_index>
1009

> <i_lp_mmshare_version>
55123

> <i_f3d_flags>
0

> <s_epik_input>
Tz1DMVtOSF1DKD1PKVtOSF1DKD1PKUMxMltDQEBIXTNOKFtDSDJdW0NAQEhdKFtDSDNdKVtDSDJdW0NASF0zW0NIM10pYzRjKFtDSDJdMilbY0hdYzVjKGM0RilvbmM1T1tDSDJdW0NAQEhdNltDSDJdW0NIMl1DKD1PKVtOSF02

> <s_epik_cmdline>
J2VwaWtfcHl0aG9uJywgJy1waHQnLCAnMC41JywgJy1waCcsICc3LjUnLCAnLXRuJywgJzgnLCAnLW1hJywgJzUwMCcsICctaW1hZScsICc8aW5maWxlLm1hZT4nLCAnLW9tYWUnLCAnPG91dGZpbGUubWFlPic=

> <r_lp_tautomer_probability>
1

> <r_epik_Ionization_Penalty>
0.222698

> <r_epik_Ionization_Penalty_Charging>
0

> <r_epik_Ionization_Penalty_Neutral>
0.222698

> <r_epik_State_Penalty>
0.213095

> <r_epik_Charging_Adjusted_Penalty>
0.213095

> <i_epik_Tot_Q>
0

> <i_epik_Tot_abs_Q>
0

> <s_lp_Force_Field>
S-OPLS

> <r_lp_Energy>
41.6233

> <b_lp_Chiralities_Consistent>
1

> <s_lp_Variant>
ligprep_h3d.sdf:1009-1

> <ROCS_ShapeQuery>
_7L13

> <ROCS_TanimotoCombo>
0.783 

> <ROCS_ShapeTanimoto>
0.692 

> <ROCS_ColorTanimoto>
0.090 

> <ROCS_RefTversky>
0.825 

> <ROCS_RefColorTversky>
0.214 

> <ROCS_RefTverskyCombo>
1.039 

> <ROCS_FitTversky>
0.811 

> <ROCS_FitColorTversky>
0.135 

> <ROCS_FitTverskyCombo>
0.946 

> <ROCS_ColorScore>
-1.990

> <ROCS_Overlap>
1371.289

> <ROCS_Rank>
33                  

$$$$
ligprep_h3d.sdf:5423_1420
  -OEChem-08212117123D

 85 91  0     0  0  0  0  0  0999 V2000
  -20.8827   -6.4825  -33.6047 C   0  0  0  0  0  0  0  0  0  0  0  0
  -20.0176   -4.2455  -33.3140 C   0  0  0  0  0  0  0  0  0  0  0  0
  -19.9142   -6.7306  -34.5774 C   0  0  0  0  0  0  0  0  0  0  0  0
  -19.0490   -4.4936  -34.2866 C   0  0  0  0  0  0  0  0  0  0  0  0
  -23.7149   -4.1202  -28.0932 C   0  0  0  0  0  0  0  0  0  0  0  0
  -20.9724   -4.3782  -28.6796 C   0  0  0  0  0  0  0  0  0  0  0  0
  -15.1782   -5.1212  -25.8587 C   0  0  0  0  0  0  0  0  0  0  0  0
  -15.0661   -6.3869  -25.3456 C   0  0  0  0  0  0  0  0  0  0  0  0
  -22.7879   -4.3611  -27.0861 C   0  0  0  0  0  0  0  0  0  0  0  0
  -20.9344   -5.2399  -32.9730 C   0  0  0  0  0  0  0  0  0  0  0  0
  -21.4228   -4.4922  -27.3693 C   0  0  0  0  0  0  0  0  0  0  0  0
  -23.2623   -4.0146  -29.4076 C   0  0  0  0  0  0  0  0  0  0  0  0
  -21.8991   -4.1418  -29.6990 C   0  0  0  0  0  0  0  0  0  0  0  0
  -18.9974   -5.7362  -34.9183 C   0  0  0  0  0  0  0  0  0  0  0  0
  -17.2181   -5.9513  -25.5974 C   0  0  0  0  0  0  0  0  0  0  0  0
  -18.7050   -5.9695  -25.6423 C   0  0  0  0  0  0  0  0  0  0  0  0
  -18.4797   -3.7232  -26.5369 C   0  0  0  0  0  0  0  0  0  0  0  0
  -17.1341   -3.7332  -26.4860 C   0  0  0  0  0  0  0  0  0  0  0  0
  -19.3158   -4.8590  -26.1096 C   0  0  0  0  0  0  0  0  0  0  0  0
  -25.9539   -3.9803  -22.5671 C   0  0  0  0  0  0  0  0  0  0  0  0
  -23.3896   -3.0852  -25.0123 C   0  0  0  0  0  0  0  0  0  0  0  0
  -24.1190   -5.4941  -25.2487 C   0  0  0  0  0  0  0  0  0  0  0  0
  -23.7540   -3.1467  -23.5271 C   0  0  0  0  0  0  0  0  0  0  0  0
  -24.4236   -5.5172  -23.7526 C   0  0  0  0  0  0  0  0  0  0  0  0
  -29.3886   -1.0248  -20.6064 C   0  0  0  0  0  0  0  0  0  0  0  0
  -28.8297   -2.9719  -19.2860 C   0  0  0  0  0  0  0  0  0  0  0  0
  -21.6164   -4.9430  -25.1140 C   0  0  0  0  0  0  0  0  0  0  0  0
  -28.0263   -1.0545  -21.2912 C   0  0  0  0  0  0  0  0  0  0  0  0
  -27.4512   -3.0583  -19.9325 C   0  0  0  0  0  0  0  0  0  0  0  0
  -23.0246   -4.4670  -25.5988 C   0  0  0  0  0  0  0  0  0  0  0  0
  -30.6157   -1.5117  -18.5908 C   0  0  0  0  0  0  0  0  0  0  0  0
  -24.4362   -2.4157  -30.7196 C   0  0  0  0  0  0  0  0  0  0  0  0
  -21.9755   -4.9725  -31.9261 C   0  0  0  0  0  0  0  0  0  0  0  0
  -26.2074   -2.5885  -22.0449 C   0  0  0  0  0  0  0  0  0  0  0  0
  -16.5263   -4.8716  -26.0071 N   0  0  0  0  0  0  0  0  0  0  0  0
  -16.3428   -6.8760  -25.1946 N   0  3  0  0  0  0  0  0  0  0  0  0
  -20.6615   -4.7292  -26.2083 N   0  0  0  0  0  0  0  0  0  0  0  0
  -24.7636   -4.1789  -23.2679 N   0  0  0  0  0  0  0  0  0  0  0  0
  -29.3126   -1.5852  -19.2508 N   0  0  0  0  0  0  0  0  0  0  0  0
  -27.5189   -2.4742  -21.3212 N   0  3  0  0  0  0  0  0  0  0  0  0
  -26.7909   -4.8626  -22.3596 O   0  0  0  0  0  0  0  0  0  0  0  0
  -24.1605   -3.7789  -30.4054 O   0  0  0  0  0  0  0  0  0  0  0  0
  -21.4591   -4.0341  -30.9853 O   0  0  0  0  0  0  0  0  0  0  0  0
  -18.0656   -5.9753  -35.8504 F   0  0  0  0  0  0  0  0  0  0  0  0
  -21.5933   -7.2632  -33.3463 H   0  0  0  0  0  0  0  0  0  0  0  0
  -20.0500   -3.2744  -32.8269 H   0  0  0  0  0  0  0  0  0  0  0  0
  -19.8734   -7.6981  -35.0687 H   0  0  0  0  0  0  0  0  0  0  0  0
  -18.3353   -3.7196  -34.5526 H   0  0  0  0  0  0  0  0  0  0  0  0
  -24.7694   -4.0054  -27.8636 H   0  0  0  0  0  0  0  0  0  0  0  0
  -19.9195   -4.4747  -28.9255 H   0  0  0  0  0  0  0  0  0  0  0  0
  -14.4783   -4.3576  -26.1409 H   0  0  0  0  0  0  0  0  0  0  0  0
  -14.2545   -7.0261  -25.0595 H   0  0  0  0  0  0  0  0  0  0  0  0
  -19.2411   -6.8490  -25.3075 H   0  0  0  0  0  0  0  0  0  0  0  0
  -18.9876   -2.8383  -26.9102 H   0  0  0  0  0  0  0  0  0  0  0  0
  -16.5113   -2.9047  -26.7971 H   0  0  0  0  0  0  0  0  0  0  0  0
  -24.2461   -2.6643  -25.5569 H   0  0  0  0  0  0  0  0  0  0  0  0
  -22.5636   -2.3759  -25.1518 H   0  0  0  0  0  0  0  0  0  0  0  0
  -23.8272   -6.4992  -25.5788 H   0  0  0  0  0  0  0  0  0  0  0  0
  -25.0476   -5.2582  -25.7851 H   0  0  0  0  0  0  0  0  0  0  0  0
  -22.8775   -3.3980  -22.9199 H   0  0  0  0  0  0  0  0  0  0  0  0
  -24.0878   -2.1593  -23.2030 H   0  0  0  0  0  0  0  0  0  0  0  0
  -25.2388   -6.2211  -23.5566 H   0  0  0  0  0  0  0  0  0  0  0  0
  -23.5545   -5.8620  -23.1806 H   0  0  0  0  0  0  0  0  0  0  0  0
  -29.7180    0.0201  -20.5550 H   0  0  0  0  0  0  0  0  0  0  0  0
  -30.1236   -1.5657  -21.2172 H   0  0  0  0  0  0  0  0  0  0  0  0
  -29.5347   -3.6206  -19.8231 H   0  0  0  0  0  0  0  0  0  0  0  0
  -28.7492   -3.3594  -18.2631 H   0  0  0  0  0  0  0  0  0  0  0  0
  -21.2887   -4.4144  -24.2118 H   0  0  0  0  0  0  0  0  0  0  0  0
  -21.6277   -6.0144  -24.8731 H   0  0  0  0  0  0  0  0  0  0  0  0
  -28.1089   -0.7185  -22.3271 H   0  0  0  0  0  0  0  0  0  0  0  0
  -27.2883   -0.4483  -20.7592 H   0  0  0  0  0  0  0  0  0  0  0  0
  -26.7007   -2.4956  -19.3710 H   0  0  0  0  0  0  0  0  0  0  0  0
  -27.1387   -4.0998  -20.0345 H   0  0  0  0  0  0  0  0  0  0  0  0
  -30.5390   -1.9353  -17.5785 H   0  0  0  0  0  0  0  0  0  0  0  0
  -30.9345   -0.4610  -18.5252 H   0  0  0  0  0  0  0  0  0  0  0  0
  -31.3539   -2.0833  -19.1724 H   0  0  0  0  0  0  0  0  0  0  0  0
  -25.1671   -2.3685  -31.5305 H   0  0  0  0  0  0  0  0  0  0  0  0
  -23.5116   -1.9156  -31.0185 H   0  0  0  0  0  0  0  0  0  0  0  0
  -24.8451   -1.9226  -29.8345 H   0  0  0  0  0  0  0  0  0  0  0  0
  -22.8868   -4.5632  -32.3753 H   0  0  0  0  0  0  0  0  0  0  0  0
  -22.2443   -5.8959  -31.4018 H   0  0  0  0  0  0  0  0  0  0  0  0
  -26.2336   -1.8903  -22.8760 H   0  0  0  0  0  0  0  0  0  0  0  0
  -25.4218   -2.3165  -21.3468 H   0  0  0  0  0  0  0  0  0  0  0  0
  -16.5820   -7.7953  -24.8333 H   0  0  0  0  0  0  0  0  0  0  0  0
  -28.2073   -3.0301  -21.8511 H   0  0  0  0  0  0  0  0  0  0  0  0
  1  3  1  0  0  0  0
  1 10  2  0  0  0  0
  2  4  2  0  0  0  0
  2 10  1  0  0  0  0
  3 14  2  0  0  0  0
  4 14  1  0  0  0  0
  5  9  1  0  0  0  0
  5 12  2  0  0  0  0
  6 11  1  0  0  0  0
  6 13  2  0  0  0  0
  7  8  2  0  0  0  0
  7 35  1  0  0  0  0
  8 36  1  0  0  0  0
  9 11  2  0  0  0  0
  9 30  1  0  0  0  0
 10 33  1  0  0  0  0
 11 37  1  0  0  0  0
 12 13  1  0  0  0  0
 12 42  1  0  0  0  0
 13 43  1  0  0  0  0
 14 44  1  0  0  0  0
 15 16  1  0  0  0  0
 15 35  1  0  0  0  0
 15 36  2  0  0  0  0
 16 19  2  0  0  0  0
 17 18  2  0  0  0  0
 17 19  1  0  0  0  0
 18 35  1  0  0  0  0
 19 37  1  0  0  0  0
 20 34  1  0  0  0  0
 20 38  1  0  0  0  0
 20 41  2  0  0  0  0
 21 23  1  0  0  0  0
 21 30  1  0  0  0  0
 22 24  1  0  0  0  0
 22 30  1  0  0  0  0
 23 38  1  0  0  0  0
 24 38  1  0  0  0  0
 25 28  1  0  0  0  0
 25 39  1  0  0  0  0
 26 29  1  0  0  0  0
 26 39  1  0  0  0  0
 27 30  1  0  0  0  0
 27 37  1  0  0  0  0
 28 40  1  0  0  0  0
 29 40  1  0  0  0  0
 31 39  1  0  0  0  0
 32 42  1  0  0  0  0
 33 43  1  0  0  0  0
 34 40  1  0  0  0  0
  1 45  1  0  0  0  0
  2 46  1  0  0  0  0
  3 47  1  0  0  0  0
  4 48  1  0  0  0  0
  5 49  1  0  0  0  0
  6 50  1  0  0  0  0
  7 51  1  0  0  0  0
  8 52  1  0  0  0  0
 16 53  1  0  0  0  0
 17 54  1  0  0  0  0
 18 55  1  0  0  0  0
 21 56  1  0  0  0  0
 21 57  1  0  0  0  0
 22 58  1  0  0  0  0
 22 59  1  0  0  0  0
 23 60  1  0  0  0  0
 23 61  1  0  0  0  0
 24 62  1  0  0  0  0
 24 63  1  0  0  0  0
 25 64  1  0  0  0  0
 25 65  1  0  0  0  0
 26 66  1  0  0  0  0
 26 67  1  0  0  0  0
 27 68  1  0  0  0  0
 27 69  1  0  0  0  0
 28 70  1  0  0  0  0
 28 71  1  0  0  0  0
 29 72  1  0  0  0  0
 29 73  1  0  0  0  0
 31 74  1  0  0  0  0
 31 75  1  0  0  0  0
 31 76  1  0  0  0  0
 32 77  1  0  0  0  0
 32 78  1  0  0  0  0
 32 79  1  0  0  0  0
 33 80  1  0  0  0  0
 33 81  1  0  0  0  0
 34 82  1  0  0  0  0
 34 83  1  0  0  0  0
 36 84  1  0  0  0  0
 40 85  1  0  0  0  0
M  CHG  2  36   1  40   1
M  END
> <SMILES>
COc1cc2c(cc1OCc1ccc(cc1)F)N(CC12CCN(CC1)C(=O)CN1CCN(C)CC1)c1ccn2ccnc2c1

> <FORMATTED_ID>
H3D-015667

> <MOLFORMULA>
C34H39FN6O3

> <Exact Mass>
598.31

> <XLogP>
5.38

> <TPSA_NOPS>
65.8

> <s_m_source_file>
ligprep_h3d.sdf

> <i_m_source_file_index>
5423

> <i_lp_mmshare_version>
55123

> <i_f3d_flags>
0

> <s_epik_input>
W2NIXTFbY0hdYyhGKVtjSF1bY0hdYzFbQ0gyXU9jKGMoW2NIXTIpT1tDSDNdKVtjSF1jKE4oW0NIMl0zKWMoW2NIXVtjSF00KVtjSF1jKG40NSluW2NIXVtjSF01KWMyQzM2W0NIMl1bQ0gyXU4oW0NIMl1bQ0gyXTYpQyg9TylbQ0gyXU43W0NIMl1bQ0gyXU4oW0NIM10pW0NIMl1bQ0gyXTc=

> <s_epik_cmdline>
J2VwaWtfcHl0aG9uJywgJy1waHQnLCAnMC41JywgJy1waCcsICc3LjUnLCAnLXRuJywgJzgnLCAnLW1hJywgJzUwMCcsICctaW1hZScsICc8aW5maWxlLm1hZT4nLCAnLW9tYWUnLCAnPG91dGZpbGUubWFlPic=

> <r_lp_tautomer_probability>
1

> <r_epik_Ionization_Penalty>
0.396671

> <r_epik_Ionization_Penalty_Charging>
0.0586072

> <r_epik_Ionization_Penalty_Neutral>
0.338064

> <r_epik_State_Penalty>
0.600117

> <r_epik_Charging_Adjusted_Penalty>
0.658724

> <i_epik_Tot_Q>
2

> <i_epik_Tot_abs_Q>
2

> <s_lp_Force_Field>
S-OPLS

> <r_lp_Energy>
95.7302

> <b_lp_Chiralities_Consistent>
1

> <s_lp_Variant>
ligprep_h3d.sdf:5423-1

> <ROCS_ShapeQuery>
_7L13

> <ROCS_TanimotoCombo>
0.692 

> <ROCS_ShapeTanimoto>
0.599 

> <ROCS_ColorTanimoto>
0.093 

> <ROCS_RefTversky>
0.825 

> <ROCS_RefColorTversky>
0.220 

> <ROCS_RefTverskyCombo>
1.045 

> <ROCS_FitTversky>
0.686 

> <ROCS_FitColorTversky>
0.139 

> <ROCS_FitTverskyCombo>
0.825 

> <ROCS_ColorScore>
-2.049

> <ROCS_Overlap>
1385.547

> <ROCS_Rank>
34                  

$$$$
ligprep_h3d.sdf:2719_1413
  -OEChem-08212117123D

115119  0     1  0  0  0  0  0999 V2000
  -23.9180   -3.0111  -22.9605 C   0  0  0  0  0  0  0  0  0  0  0  0
  -25.2282   -3.4794  -22.8627 C   0  0  0  0  0  0  0  0  0  0  0  0
  -23.0973   -3.4472  -24.0006 C   0  0  0  0  0  0  0  0  0  0  0  0
  -25.7177   -4.3839  -23.8049 C   0  0  0  0  0  0  0  0  0  0  0  0
  -23.5867   -4.3518  -24.9428 C   0  0  0  0  0  0  0  0  0  0  0  0
  -24.8970   -4.8201  -24.8450 C   0  0  0  0  0  0  0  0  0  0  0  0
  -21.4471   -4.7246  -28.9146 C   0  0  0  0  0  0  0  0  0  0  0  0
  -18.2010   -6.3693  -25.4492 C   0  0  0  0  0  0  0  0  0  0  0  0
  -21.0086   -4.8558  -27.6571 C   0  0  0  0  0  0  0  0  0  0  0  0
  -16.9260   -5.9418  -25.5198 C   0  0  0  0  0  0  0  0  0  0  0  0
  -21.6866   -4.0867  -26.5648 C   0  0  0  0  0  0  0  0  0  0  0  0
  -23.4401   -1.7051  -28.6659 C   0  0  0  0  0  0  0  0  0  0  0  0
  -20.5309   -4.4766  -35.1754 C   0  0  0  0  0  0  0  0  0  0  0  0
  -18.9826   -8.0308  -35.9506 C   0  0  0  0  0  0  0  0  0  0  0  0
  -20.8597   -3.9194  -33.7926 C   0  0  0  0  0  0  0  0  0  0  0  0
  -19.3887   -7.5912  -34.5408 C   0  0  0  0  0  0  0  0  0  0  0  0
  -19.5035   -6.0310  -30.1411 C   0  0  0  0  0  0  0  0  0  0  0  0
  -22.4792   -3.8057  -30.8978 C   0  0  0  0  0  0  0  0  0  0  0  0
  -20.8973   -5.4117  -30.1398 C   0  0  2  0  0  0  0  0  0  0  0  0
  -22.5474   -3.7820  -29.3541 C   0  0  2  0  0  0  0  0  0  0  0  0
  -19.1288   -5.1106  -35.2344 C   0  0  2  0  0  0  0  0  0  0  0  0
  -19.4101   -5.6919  -32.7040 C   0  0  1  0  0  0  0  0  0  0  0  0
  -18.7426   -5.6060  -36.6655 C   0  0  1  0  0  0  0  0  0  0  0  0
  -19.3039   -6.9929  -37.0206 C   0  0  2  0  0  0  0  0  0  0  0  0
  -19.1983   -6.6745  -31.5094 C   0  0  2  0  0  0  0  0  0  0  0  0
  -18.8629   -6.1946  -34.1190 C   0  0  1  0  0  0  0  0  0  0  0  0
  -20.8418   -4.9952  -32.6816 C   0  0  1  0  0  0  0  0  0  0  0  0
  -21.0520   -4.3254  -31.2386 C   0  0  1  0  0  0  0  0  0  0  0  0
  -15.7113   -6.7529  -25.1679 C   0  0  0  0  0  0  0  0  0  0  0  0
  -16.6194   -4.5434  -25.9875 C   0  0  0  0  0  0  0  0  0  0  0  0
  -23.2140   -0.7404  -27.5415 C   0  0  0  0  0  0  0  0  0  0  0  0
  -19.0588   -4.5868  -37.7678 C   0  0  0  0  0  0  0  0  0  0  0  0
  -17.3084   -6.3349  -33.9739 C   0  0  0  0  0  0  0  0  0  0  0  0
  -22.0087   -5.9739  -32.9903 C   0  0  0  0  0  0  0  0  0  0  0  0
  -20.0703   -3.1243  -31.0106 C   0  0  0  0  0  0  0  0  0  0  0  0
  -26.9300   -8.3134  -22.0647 C   0  0  0  0  0  0  0  0  0  0  0  0
  -29.6409   -6.3017  -23.0734 C   0  0  0  0  0  0  0  0  0  0  0  0
  -27.1230   -4.8738  -23.6825 C   0  0  0  0  0  0  0  0  0  0  0  0
  -19.4568   -5.6123  -25.7850 C   0  0  0  0  0  0  0  0  0  0  0  0
  -19.8007   -5.6761  -27.2798 C   0  0  0  0  0  0  0  0  0  0  0  0
  -26.8691   -6.8029  -22.1284 C   0  0  0  0  0  0  0  0  0  0  0  0
  -28.5602   -6.8894  -23.9542 C   0  0  0  0  0  0  0  0  0  0  0  0
  -22.7405   -4.7838  -25.9922 N   0  0  0  0  0  0  0  0  0  0  0  0
  -27.2203   -6.3503  -23.5227 N   0  3  0  0  0  0  0  0  0  0  0  0
  -21.2455   -2.9885  -26.2423 O   0  0  0  0  0  0  0  0  0  0  0  0
  -24.4799   -1.7790  -29.3066 O   0  0  0  0  0  0  0  0  0  0  0  0
  -25.3793   -5.7053  -25.7649 O   0  0  0  0  0  0  0  0  0  0  0  0
  -20.7048   -6.9493  -37.2718 O   0  0  0  0  0  0  0  0  0  0  0  0
  -20.0033   -7.8389  -31.6602 O   0  0  0  0  0  0  0  0  0  0  0  0
  -22.3227   -2.4724  -28.8560 O   0  0  0  0  0  0  0  0  0  0  0  0
  -23.5371   -2.3066  -22.2268 H   0  0  0  0  0  0  0  0  0  0  0  0
  -25.8596   -3.1339  -22.0484 H   0  0  0  0  0  0  0  0  0  0  0  0
  -22.0781   -3.0745  -24.0665 H   0  0  0  0  0  0  0  0  0  0  0  0
  -18.3771   -7.3923  -25.1175 H   0  0  0  0  0  0  0  0  0  0  0  0
  -21.2985   -5.1806  -35.5039 H   0  0  0  0  0  0  0  0  0  0  0  0
  -20.5832   -3.6317  -35.8718 H   0  0  0  0  0  0  0  0  0  0  0  0
  -17.9099   -8.2547  -35.9713 H   0  0  0  0  0  0  0  0  0  0  0  0
  -19.5017   -8.9700  -36.1794 H   0  0  0  0  0  0  0  0  0  0  0  0
  -20.1286   -3.1306  -33.5848 H   0  0  0  0  0  0  0  0  0  0  0  0
  -21.8403   -3.4281  -33.8271 H   0  0  0  0  0  0  0  0  0  0  0  0
  -20.4742   -7.6380  -34.4901 H   0  0  0  0  0  0  0  0  0  0  0  0
  -19.0230   -8.3586  -33.8484 H   0  0  0  0  0  0  0  0  0  0  0  0
  -18.7412   -5.2802  -29.9044 H   0  0  0  0  0  0  0  0  0  0  0  0
  -19.4479   -6.7993  -29.3601 H   0  0  0  0  0  0  0  0  0  0  0  0
  -23.2520   -4.4972  -31.2451 H   0  0  0  0  0  0  0  0  0  0  0  0
  -22.6810   -2.8269  -31.3459 H   0  0  0  0  0  0  0  0  0  0  0  0
  -21.6071   -6.2302  -30.3200 H   0  0  0  0  0  0  0  0  0  0  0  0
  -23.5268   -4.1285  -29.0070 H   0  0  0  0  0  0  0  0  0  0  0  0
  -18.4421   -4.2757  -35.0212 H   0  0  0  0  0  0  0  0  0  0  0  0
  -18.7129   -4.8740  -32.4827 H   0  0  0  0  0  0  0  0  0  0  0  0
  -17.6535   -5.7053  -36.6822 H   0  0  0  0  0  0  0  0  0  0  0  0
  -18.8280   -7.3316  -37.9736 H   0  0  0  0  0  0  0  0  0  0  0  0
  -18.1582   -7.0121  -31.4815 H   0  0  0  0  0  0  0  0  0  0  0  0
  -15.3501   -7.2894  -26.0516 H   0  0  0  0  0  0  0  0  0  0  0  0
  -14.8804   -6.1584  -24.7847 H   0  0  0  0  0  0  0  0  0  0  0  0
  -15.9631   -7.4906  -24.3985 H   0  0  0  0  0  0  0  0  0  0  0  0
  -16.6017   -3.8548  -25.1362 H   0  0  0  0  0  0  0  0  0  0  0  0
  -15.6491   -4.4736  -26.4904 H   0  0  0  0  0  0  0  0  0  0  0  0
  -17.3841   -4.2041  -26.6939 H   0  0  0  0  0  0  0  0  0  0  0  0
  -23.5199   -1.1948  -26.5959 H   0  0  0  0  0  0  0  0  0  0  0  0
  -23.7726    0.1808  -27.7251 H   0  0  0  0  0  0  0  0  0  0  0  0
  -22.1495   -0.4955  -27.4823 H   0  0  0  0  0  0  0  0  0  0  0  0
  -20.1325   -4.4291  -37.8182 H   0  0  0  0  0  0  0  0  0  0  0  0
  -18.7030   -4.9639  -38.7226 H   0  0  0  0  0  0  0  0  0  0  0  0
  -18.5647   -3.6456  -37.5432 H   0  0  0  0  0  0  0  0  0  0  0  0
  -16.9174   -5.3764  -33.6810 H   0  0  0  0  0  0  0  0  0  0  0  0
  -16.9149   -6.6379  -34.9283 H   0  0  0  0  0  0  0  0  0  0  0  0
  -17.1140   -7.0787  -33.2212 H   0  0  0  0  0  0  0  0  0  0  0  0
  -22.0234   -6.7402  -32.2294 H   0  0  0  0  0  0  0  0  0  0  0  0
  -21.8401   -6.4116  -33.9631 H   0  0  0  0  0  0  0  0  0  0  0  0
  -22.9340   -5.4168  -32.9825 H   0  0  0  0  0  0  0  0  0  0  0  0
  -19.0761   -3.4641  -31.2414 H   0  0  0  0  0  0  0  0  0  0  0  0
  -20.1484   -2.8273  -29.9797 H   0  0  0  0  0  0  0  0  0  0  0  0
  -20.3691   -2.3264  -31.6674 H   0  0  0  0  0  0  0  0  0  0  0  0
  -27.9444   -8.6603  -22.2839 H   0  0  0  0  0  0  0  0  0  0  0  0
  -26.2517   -8.7679  -22.7943 H   0  0  0  0  0  0  0  0  0  0  0  0
  -26.6547   -8.6790  -21.0699 H   0  0  0  0  0  0  0  0  0  0  0  0
  -29.4811   -6.5961  -22.0316 H   0  0  0  0  0  0  0  0  0  0  0  0
  -29.6382   -5.2077  -23.1202 H   0  0  0  0  0  0  0  0  0  0  0  0
  -30.6329   -6.6530  -23.3761 H   0  0  0  0  0  0  0  0  0  0  0  0
  -27.6285   -4.4346  -22.8125 H   0  0  0  0  0  0  0  0  0  0  0  0
  -27.7170   -4.6189  -24.5699 H   0  0  0  0  0  0  0  0  0  0  0  0
  -20.3144   -5.9375  -25.1898 H   0  0  0  0  0  0  0  0  0  0  0  0
  -19.2910   -4.5617  -25.5141 H   0  0  0  0  0  0  0  0  0  0  0  0
  -19.9469   -6.7242  -27.5732 H   0  0  0  0  0  0  0  0  0  0  0  0
  -18.9361   -5.3242  -27.8567 H   0  0  0  0  0  0  0  0  0  0  0  0
  -25.8644   -6.4290  -21.9129 H   0  0  0  0  0  0  0  0  0  0  0  0
  -27.5904   -6.3401  -21.4492 H   0  0  0  0  0  0  0  0  0  0  0  0
  -28.6963   -6.6101  -25.0026 H   0  0  0  0  0  0  0  0  0  0  0  0
  -28.5126   -7.9782  -23.8639 H   0  0  0  0  0  0  0  0  0  0  0  0
  -22.9292   -5.7237  -26.3346 H   0  0  0  0  0  0  0  0  0  0  0  0
  -26.5207   -6.7787  -24.1505 H   0  0  0  0  0  0  0  0  0  0  0  0
  -26.2989   -5.9316  -25.5586 H   0  0  0  0  0  0  0  0  0  0  0  0
  -20.9589   -7.8352  -37.5732 H   0  0  0  0  0  0  0  0  0  0  0  0
  -19.7678   -8.4356  -30.9324 H   0  0  0  0  0  0  0  0  0  0  0  0
  1  2  1  0  0  0  0
  1  3  2  0  0  0  0
  2  4  2  0  0  0  0
  3  5  1  0  0  0  0
  4  6  1  0  0  0  0
  4 38  1  0  0  0  0
  5  6  2  0  0  0  0
  5 43  1  0  0  0  0
  6 47  1  0  0  0  0
  7  9  2  0  0  0  0
  7 19  1  0  0  0  0
  7 20  1  0  0  0  0
  8 10  2  0  0  0  0
  8 39  1  0  0  0  0
  9 11  1  0  0  0  0
  9 40  1  0  0  0  0
 10 29  1  0  0  0  0
 10 30  1  0  0  0  0
 11 43  1  0  0  0  0
 11 45  2  0  0  0  0
 12 31  1  0  0  0  0
 12 46  2  0  0  0  0
 12 50  1  0  0  0  0
 13 15  1  0  0  0  0
 13 21  1  0  0  0  0
 14 16  1  0  0  0  0
 14 24  1  0  0  0  0
 15 27  1  0  0  0  0
 16 26  1  0  0  0  0
 17 19  1  0  0  0  0
 17 25  1  0  0  0  0
 18 20  1  0  0  0  0
 18 28  1  0  0  0  0
 19 28  1  0  0  0  0
 20 50  1  0  0  0  0
 21 23  1  0  0  0  0
 21 26  1  0  0  0  0
 22 25  1  0  0  0  0
 22 26  1  0  0  0  0
 22 27  1  0  0  0  0
 23 24  1  0  0  0  0
 23 32  1  0  0  0  0
 24 48  1  0  0  0  0
 25 49  1  0  0  0  0
 26 33  1  0  0  0  0
 27 28  1  0  0  0  0
 27 34  1  0  0  0  0
 28 35  1  0  0  0  0
 36 41  1  0  0  0  0
 37 42  1  0  0  0  0
 38 44  1  0  0  0  0
 39 40  1  0  0  0  0
 41 44  1  0  0  0  0
 42 44  1  0  0  0  0
  1 51  1  0  0  0  0
  2 52  1  0  0  0  0
  3 53  1  0  0  0  0
  8 54  1  0  0  0  0
 13 55  1  0  0  0  0
 13 56  1  0  0  0  0
 14 57  1  0  0  0  0
 14 58  1  0  0  0  0
 15 59  1  0  0  0  0
 15 60  1  0  0  0  0
 16 61  1  0  0  0  0
 16 62  1  0  0  0  0
 17 63  1  0  0  0  0
 17 64  1  0  0  0  0
 18 65  1  0  0  0  0
 18 66  1  0  0  0  0
 19 67  1  0  0  0  0
 20 68  1  0  0  0  0
 21 69  1  0  0  0  0
 22 70  1  0  0  0  0
 23 71  1  0  0  0  0
 24 72  1  0  0  0  0
 25 73  1  0  0  0  0
 29 74  1  0  0  0  0
 29 75  1  0  0  0  0
 29 76  1  0  0  0  0
 30 77  1  0  0  0  0
 30 78  1  0  0  0  0
 30 79  1  0  0  0  0
 31 80  1  0  0  0  0
 31 81  1  0  0  0  0
 31 82  1  0  0  0  0
 32 83  1  0  0  0  0
 32 84  1  0  0  0  0
 32 85  1  0  0  0  0
 33 86  1  0  0  0  0
 33 87  1  0  0  0  0
 33 88  1  0  0  0  0
 34 89  1  0  0  0  0
 34 90  1  0  0  0  0
 34 91  1  0  0  0  0
 35 92  1  0  0  0  0
 35 93  1  0  0  0  0
 35 94  1  0  0  0  0
 36 95  1  0  0  0  0
 36 96  1  0  0  0  0
 36 97  1  0  0  0  0
 37 98  1  0  0  0  0
 37 99  1  0  0  0  0
 37100  1  0  0  0  0
 38101  1  0  0  0  0
 38102  1  0  0  0  0
 39103  1  0  0  0  0
 39104  1  0  0  0  0
 40105  1  0  0  0  0
 40106  1  0  0  0  0
 41107  1  0  0  0  0
 41108  1  0  0  0  0
 42109  1  0  0  0  0
 42110  1  0  0  0  0
 43111  1  0  0  0  0
 44112  1  0  0  0  0
 47113  1  0  0  0  0
 48114  1  0  0  0  0
 49115  1  0  0  0  0
M  CHG  1  44   1
M  END
> <SMILES>
CCN(CC)Cc1cccc(c1O)NC(=O)/C(=C/1\[C@H](C[C@@]2(C)[C@H]1C[C@@H](O)[C@H]1[C@@]3(C)CC[C@@H](O)[C@@H](C)C3CC[C@@]12C)OC(=O)C)CCC=C(C)C

> <FORMATTED_ID>
H3D-008269

> <MOLFORMULA>
C42H64N2O6

> <Exact Mass>
692.48

> <XLogP>
7.46

> <TPSA_NOPS>
119.3

> <s_m_source_file>
ligprep_h3d.sdf

> <i_m_source_file_index>
2719

> <i_lp_mmshare_version>
55123

> <i_f3d_flags>
0

> <s_epik_input>
W0NIM11bQ0gyXU4oW0NIMl1bQ0gzXSlbQ0gyXWMxW2NIXVtjSF1bY0hdYyhjMVtPSF0pW05IXUMoPU8pL0MoW0NIMl1bQ0gyXVtDSF09QyhbQ0gzXSlbQ0gzXSk9QyhcW0NASF0oW0NIMl0yKU9DKD1PKVtDSDNdKVtDQEBIXShbQ0BdMjNbQ0gzXSlbQ0gyXVtDQEBIXShbT0hdKVtDQEhdNFtDQF01KFtDSDNdKVtDQEBIXShbQ0BIXShbQ0gzXSlbQ0BIXShbT0hdKVtDSDJdW0NIMl01KVtDSDJdW0NIMl1bQ0BdMzRbQ0gzXQ==

> <s_epik_cmdline>
J2VwaWtfcHl0aG9uJywgJy1waHQnLCAnMC41JywgJy1waCcsICc3LjUnLCAnLXRuJywgJzgnLCAnLW1hJywgJzUwMCcsICctaW1hZScsICc8aW5maWxlLm1hZT4nLCAnLW9tYWUnLCAnPG91dGZpbGUubWFlPic=

> <r_lp_tautomer_probability>
1

> <r_epik_Ionization_Penalty>
0.217055

> <r_epik_Ionization_Penalty_Charging>
0.0528895

> <r_epik_Ionization_Penalty_Neutral>
0.164166

> <r_epik_State_Penalty>
-0

> <r_epik_Charging_Adjusted_Penalty>
0.0528895

> <i_epik_Tot_Q>
1

> <i_epik_Tot_abs_Q>
1

> <s_epik_Chemistry_Notes>
This compound has an ester and may undergo hydrolysis at high or low pH.

> <s_lp_Force_Field>
S-OPLS

> <r_lp_Energy>
97.4327

> <b_lp_Chiralities_Consistent>
1

> <s_lp_Variant>
ligprep_h3d.sdf:2719-1

> <ROCS_ShapeQuery>
_7L13

> <ROCS_TanimotoCombo>
0.623 

> <ROCS_ShapeTanimoto>
0.567 

> <ROCS_ColorTanimoto>
0.056 

> <ROCS_RefTversky>
0.825 

> <ROCS_RefColorTversky>
0.152 

> <ROCS_RefTverskyCombo>
0.977 

> <ROCS_FitTversky>
0.644 

> <ROCS_FitColorTversky>
0.082 

> <ROCS_FitTverskyCombo>
0.726 

> <ROCS_ColorScore>
-1.440

> <ROCS_Overlap>
1391.435

> <ROCS_Rank>
35                  

$$$$
ligprep_h3d.sdf:2368_342
  -OEChem-08212117123D

 97101  0     1  0  0  0  0  0999 V2000
  -24.8574   -5.3444  -25.2891 C   0  0  0  0  0  0  0  0  0  0  0  0
  -23.2967   -3.9233  -24.1137 C   0  0  0  0  0  0  0  0  0  0  0  0
  -25.8079   -5.1254  -24.2920 C   0  0  0  0  0  0  0  0  0  0  0  0
  -24.2472   -3.7042  -23.1166 C   0  0  0  0  0  0  0  0  0  0  0  0
  -23.6018   -4.7434  -25.2000 C   0  0  0  0  0  0  0  0  0  0  0  0
  -25.5028   -4.3052  -23.2058 C   0  0  0  0  0  0  0  0  0  0  0  0
  -21.3655   -4.9815  -28.8772 C   0  0  0  0  0  0  0  0  0  0  0  0
  -17.3692   -4.3572  -25.8954 C   0  0  0  0  0  0  0  0  0  0  0  0
  -20.7817   -4.6771  -27.7122 C   0  0  0  0  0  0  0  0  0  0  0  0
  -16.6247   -5.3368  -25.3482 C   0  0  0  0  0  0  0  0  0  0  0  0
  -21.6167   -4.1117  -26.6042 C   0  0  0  0  0  0  0  0  0  0  0  0
  -24.5172   -3.1650  -28.7050 C   0  0  0  0  0  0  0  0  0  0  0  0
  -21.0534   -4.8998  -35.1701 C   0  0  0  0  0  0  0  0  0  0  0  0
  -17.9529   -8.0325  -35.6744 C   0  0  0  0  0  0  0  0  0  0  0  0
  -21.8411   -4.9360  -33.8490 C   0  0  0  0  0  0  0  0  0  0  0  0
  -18.4359   -7.5894  -34.2821 C   0  0  0  0  0  0  0  0  0  0  0  0
  -19.1815   -5.4626  -30.3013 C   0  0  0  0  0  0  0  0  0  0  0  0
  -22.9258   -5.0418  -30.7229 C   0  0  0  0  0  0  0  0  0  0  0  0
  -20.6914   -5.5607  -30.0969 C   0  0  2  0  0  0  0  0  0  0  0  0
  -22.8230   -4.7331  -29.2127 C   0  0  2  0  0  0  0  0  0  0  0  0
  -20.1889   -6.1457  -35.3364 C   0  0  1  0  0  0  0  0  0  0  0  0
  -19.5769   -5.6593  -32.8456 C   0  0  1  0  0  0  0  0  0  0  0  0
  -19.6585   -6.4456  -36.7648 C   0  0  1  0  0  0  0  0  0  0  0  0
  -19.0000   -7.8499  -36.7758 C   0  0  2  0  0  0  0  0  0  0  0  0
  -18.7762   -6.1706  -31.6102 C   0  0  2  0  0  0  0  0  0  0  0  0
  -19.0439   -6.1632  -34.2656 C   0  0  1  0  0  0  0  0  0  0  0  0
  -21.1492   -5.6619  -32.6416 C   0  0  1  0  0  0  0  0  0  0  0  0
  -21.4765   -4.9014  -31.2658 C   0  0  1  0  0  0  0  0  0  0  0  0
  -15.1303   -5.3166  -25.1943 C   0  0  0  0  0  0  0  0  0  0  0  0
  -17.2820   -6.5853  -24.8216 C   0  0  0  0  0  0  0  0  0  0  0  0
  -24.6668   -1.9746  -27.8070 C   0  0  0  0  0  0  0  0  0  0  0  0
  -20.7540   -6.3596  -37.8356 C   0  0  0  0  0  0  0  0  0  0  0  0
  -17.8940   -5.1677  -34.6402 C   0  0  0  0  0  0  0  0  0  0  0  0
  -21.7030   -7.1193  -32.5913 C   0  0  0  0  0  0  0  0  0  0  0  0
  -21.1601   -3.3647  -31.3559 C   0  0  0  0  0  0  0  0  0  0  0  0
  -18.8617   -4.3142  -26.0792 C   0  0  0  0  0  0  0  0  0  0  0  0
  -19.2970   -4.7895  -27.4724 C   0  0  0  0  0  0  0  0  0  0  0  0
  -22.6371   -4.9657  -26.2118 N   0  0  0  0  0  0  0  0  0  0  0  0
  -21.3144   -3.0259  -26.1200 O   0  0  0  0  0  0  0  0  0  0  0  0
  -25.4552   -3.8306  -29.1225 O   0  0  0  0  0  0  0  0  0  0  0  0
  -26.4302   -4.0914  -22.2328 O   0  0  0  0  0  0  0  0  0  0  0  0
  -19.9824   -8.8728  -36.5953 O   0  0  0  0  0  0  0  0  0  0  0  0
  -18.9508   -7.5742  -31.4381 O   0  0  0  0  0  0  0  0  0  0  0  0
  -23.1935   -3.3829  -28.9761 O   0  0  0  0  0  0  0  0  0  0  0  0
  -25.1060   -5.9854  -26.1312 H   0  0  0  0  0  0  0  0  0  0  0  0
  -22.3215   -3.4497  -24.0337 H   0  0  0  0  0  0  0  0  0  0  0  0
  -26.7843   -5.5963  -24.3671 H   0  0  0  0  0  0  0  0  0  0  0  0
  -24.0036   -3.0643  -22.2728 H   0  0  0  0  0  0  0  0  0  0  0  0
  -16.8542   -3.4657  -26.2526 H   0  0  0  0  0  0  0  0  0  0  0  0
  -21.7834   -4.8020  -35.9799 H   0  0  0  0  0  0  0  0  0  0  0  0
  -20.4381   -3.9943  -35.2099 H   0  0  0  0  0  0  0  0  0  0  0  0
  -17.0434   -7.4840  -35.9427 H   0  0  0  0  0  0  0  0  0  0  0  0
  -17.6657   -9.0898  -35.6121 H   0  0  0  0  0  0  0  0  0  0  0  0
  -22.0955   -3.8995  -33.6178 H   0  0  0  0  0  0  0  0  0  0  0  0
  -22.8131   -5.4085  -34.0450 H   0  0  0  0  0  0  0  0  0  0  0  0
  -19.1769   -8.3152  -33.9284 H   0  0  0  0  0  0  0  0  0  0  0  0
  -17.5785   -7.6534  -33.6021 H   0  0  0  0  0  0  0  0  0  0  0  0
  -18.8547   -4.4171  -30.3246 H   0  0  0  0  0  0  0  0  0  0  0  0
  -18.6688   -5.9401  -29.4573 H   0  0  0  0  0  0  0  0  0  0  0  0
  -23.2910   -6.0681  -30.8299 H   0  0  0  0  0  0  0  0  0  0  0  0
  -23.6281   -4.3819  -31.2432 H   0  0  0  0  0  0  0  0  0  0  0  0
  -20.9307   -6.6295  -30.0326 H   0  0  0  0  0  0  0  0  0  0  0  0
  -23.4869   -5.3890  -28.6424 H   0  0  0  0  0  0  0  0  0  0  0  0
  -20.8664   -6.9816  -35.1376 H   0  0  0  0  0  0  0  0  0  0  0  0
  -19.3312   -4.5913  -32.8628 H   0  0  0  0  0  0  0  0  0  0  0  0
  -18.9020   -5.7042  -37.0431 H   0  0  0  0  0  0  0  0  0  0  0  0
  -18.5228   -8.0313  -37.7464 H   0  0  0  0  0  0  0  0  0  0  0  0
  -17.7062   -5.9985  -31.7728 H   0  0  0  0  0  0  0  0  0  0  0  0
  -14.8589   -4.8719  -24.2310 H   0  0  0  0  0  0  0  0  0  0  0  0
  -14.6694   -6.3047  -25.2391 H   0  0  0  0  0  0  0  0  0  0  0  0
  -14.6796   -4.7130  -25.9892 H   0  0  0  0  0  0  0  0  0  0  0  0
  -17.3493   -7.3401  -25.6120 H   0  0  0  0  0  0  0  0  0  0  0  0
  -16.7298   -7.0285  -23.9863 H   0  0  0  0  0  0  0  0  0  0  0  0
  -18.2937   -6.3604  -24.4680 H   0  0  0  0  0  0  0  0  0  0  0  0
  -24.6357   -2.2922  -26.7619 H   0  0  0  0  0  0  0  0  0  0  0  0
  -25.6061   -1.4605  -28.0259 H   0  0  0  0  0  0  0  0  0  0  0  0
  -23.8408   -1.2799  -27.9850 H   0  0  0  0  0  0  0  0  0  0  0  0
  -21.5374   -7.0778  -37.6105 H   0  0  0  0  0  0  0  0  0  0  0  0
  -20.3268   -6.5830  -38.8092 H   0  0  0  0  0  0  0  0  0  0  0  0
  -21.1731   -5.3574  -37.8450 H   0  0  0  0  0  0  0  0  0  0  0  0
  -18.3034   -4.1725  -34.6323 H   0  0  0  0  0  0  0  0  0  0  0  0
  -17.5365   -5.4305  -35.6206 H   0  0  0  0  0  0  0  0  0  0  0  0
  -17.1154   -5.2710  -33.9044 H   0  0  0  0  0  0  0  0  0  0  0  0
  -21.2345   -7.6289  -31.7647 H   0  0  0  0  0  0  0  0  0  0  0  0
  -21.4617   -7.6032  -33.5240 H   0  0  0  0  0  0  0  0  0  0  0  0
  -22.7710   -7.0688  -32.4525 H   0  0  0  0  0  0  0  0  0  0  0  0
  -20.1585   -3.2607  -31.7309 H   0  0  0  0  0  0  0  0  0  0  0  0
  -21.2502   -2.9559  -30.3662 H   0  0  0  0  0  0  0  0  0  0  0  0
  -21.8753   -2.9245  -32.0264 H   0  0  0  0  0  0  0  0  0  0  0  0
  -19.3955   -4.8768  -25.3085 H   0  0  0  0  0  0  0  0  0  0  0  0
  -19.1793   -3.2710  -25.9561 H   0  0  0  0  0  0  0  0  0  0  0  0
  -18.9659   -5.8259  -27.6213 H   0  0  0  0  0  0  0  0  0  0  0  0
  -18.7676   -4.1971  -28.2294 H   0  0  0  0  0  0  0  0  0  0  0  0
  -22.7033   -5.8698  -26.6749 H   0  0  0  0  0  0  0  0  0  0  0  0
  -27.2475   -4.5741  -22.4352 H   0  0  0  0  0  0  0  0  0  0  0  0
  -19.5137   -9.7166  -36.6744 H   0  0  0  0  0  0  0  0  0  0  0  0
  -18.3757   -7.8363  -30.7024 H   0  0  0  0  0  0  0  0  0  0  0  0
  1  3  1  0  0  0  0
  1  5  2  0  0  0  0
  2  4  2  0  0  0  0
  2  5  1  0  0  0  0
  3  6  2  0  0  0  0
  4  6  1  0  0  0  0
  5 38  1  0  0  0  0
  6 41  1  0  0  0  0
  7  9  2  0  0  0  0
  7 19  1  0  0  0  0
  7 20  1  0  0  0  0
  8 10  2  0  0  0  0
  8 36  1  0  0  0  0
  9 11  1  0  0  0  0
  9 37  1  0  0  0  0
 10 29  1  0  0  0  0
 10 30  1  0  0  0  0
 11 38  1  0  0  0  0
 11 39  2  0  0  0  0
 12 31  1  0  0  0  0
 12 40  2  0  0  0  0
 12 44  1  0  0  0  0
 13 15  1  0  0  0  0
 13 21  1  0  0  0  0
 14 16  1  0  0  0  0
 14 24  1  0  0  0  0
 15 27  1  0  0  0  0
 16 26  1  0  0  0  0
 17 19  1  0  0  0  0
 17 25  1  0  0  0  0
 18 20  1  0  0  0  0
 18 28  1  0  0  0  0
 19 28  1  0  0  0  0
 20 44  1  0  0  0  0
 21 23  1  0  0  0  0
 21 26  1  0  0  0  0
 22 25  1  0  0  0  0
 22 26  1  0  0  0  0
 22 27  1  0  0  0  0
 23 24  1  0  0  0  0
 23 32  1  0  0  0  0
 24 42  1  0  0  0  0
 25 43  1  0  0  0  0
 26 33  1  0  0  0  0
 27 28  1  0  0  0  0
 27 34  1  0  0  0  0
 28 35  1  0  0  0  0
 36 37  1  0  0  0  0
  1 45  1  0  0  0  0
  2 46  1  0  0  0  0
  3 47  1  0  0  0  0
  4 48  1  0  0  0  0
  8 49  1  0  0  0  0
 13 50  1  0  0  0  0
 13 51  1  0  0  0  0
 14 52  1  0  0  0  0
 14 53  1  0  0  0  0
 15 54  1  0  0  0  0
 15 55  1  0  0  0  0
 16 56  1  0  0  0  0
 16 57  1  0  0  0  0
 17 58  1  0  0  0  0
 17 59  1  0  0  0  0
 18 60  1  0  0  0  0
 18 61  1  0  0  0  0
 19 62  1  0  0  0  0
 20 63  1  0  0  0  0
 21 64  1  0  0  0  0
 22 65  1  0  0  0  0
 23 66  1  0  0  0  0
 24 67  1  0  0  0  0
 25 68  1  0  0  0  0
 29 69  1  0  0  0  0
 29 70  1  0  0  0  0
 29 71  1  0  0  0  0
 30 72  1  0  0  0  0
 30 73  1  0  0  0  0
 30 74  1  0  0  0  0
 31 75  1  0  0  0  0
 31 76  1  0  0  0  0
 31 77  1  0  0  0  0
 32 78  1  0  0  0  0
 32 79  1  0  0  0  0
 32 80  1  0  0  0  0
 33 81  1  0  0  0  0
 33 82  1  0  0  0  0
 33 83  1  0  0  0  0
 34 84  1  0  0  0  0
 34 85  1  0  0  0  0
 34 86  1  0  0  0  0
 35 87  1  0  0  0  0
 35 88  1  0  0  0  0
 35 89  1  0  0  0  0
 36 90  1  0  0  0  0
 36 91  1  0  0  0  0
 37 92  1  0  0  0  0
 37 93  1  0  0  0  0
 38 94  1  0  0  0  0
 41 95  1  0  0  0  0
 42 96  1  0  0  0  0
 43 97  1  0  0  0  0
M  END
> <SMILES>
C[C@@H]1[C@H](O)CC[C@@]2(C)[C@H]1CC[C@@]1(C)[C@H]2[C@H](O)C[C@H]2/C(=C(\CCC=C(C)C)C(=O)Nc3ccc(cc3)O)[C@H](C[C@@]21C)OC(=O)C

> <FORMATTED_ID>
H3D-005457

> <MOLFORMULA>
C37H53NO6

> <Exact Mass>
607.39

> <XLogP>
6.55

> <TPSA_NOPS>
116.1

> <s_m_source_file>
ligprep_h3d.sdf

> <i_m_source_file_index>
2368

> <i_lp_mmshare_version>
55123

> <i_f3d_flags>
0

> <s_epik_input>
W0NIMl0xW0NIMl1bQ0BASF0oW09IXSlbQ0BASF0oW0NIM10pW0NAQEhdKFtDQF0xMltDSDNdKVtDSDJdW0NIMl1bQ0BAXTMoW0NIM10pW0NASF0yW0NASF0oW09IXSlbQ0gyXVtDQEBIXTRbQ0BdMyhbQ0gzXSlbQ0gyXVtDQEhdKE9DKD1PKVtDSDNdKUNcND1DKFxbQ0gyXVtDSDJdW0NIXT1DKFtDSDNdKVtDSDNdKUMoPU8pW05IXWM1W2NIXVtjSF1jKFtPSF0pW2NIXVtjSF01

> <s_epik_cmdline>
J2VwaWtfcHl0aG9uJywgJy1waHQnLCAnMC41JywgJy1waCcsICc3LjUnLCAnLXRuJywgJzgnLCAnLW1hJywgJzUwMCcsICctaW1hZScsICc8aW5maWxlLm1hZT4nLCAnLW9tYWUnLCAnPG91dGZpbGUubWFlPic=

> <r_lp_tautomer_probability>
1

> <r_epik_Ionization_Penalty>
0.00212015

> <r_epik_Ionization_Penalty_Charging>
0

> <r_epik_Ionization_Penalty_Neutral>
0.00212015

> <r_epik_State_Penalty>
-0

> <r_epik_Charging_Adjusted_Penalty>
0

> <i_epik_Tot_Q>
0

> <i_epik_Tot_abs_Q>
0

> <s_epik_Chemistry_Notes>
This compound has an ester and may undergo hydrolysis at high or low pH.

> <s_lp_Force_Field>
S-OPLS

> <r_lp_Energy>
87.1429

> <b_lp_Chiralities_Consistent>
1

> <s_lp_Variant>
ligprep_h3d.sdf:2368-1

> <ROCS_ShapeQuery>
_7L13

> <ROCS_TanimotoCombo>
0.724 

> <ROCS_ShapeTanimoto>
0.622 

> <ROCS_ColorTanimoto>
0.101 

> <ROCS_RefTversky>
0.824 

> <ROCS_RefColorTversky>
0.246 

> <ROCS_RefTverskyCombo>
1.071 

> <ROCS_FitTversky>
0.717 

> <ROCS_FitColorTversky>
0.147 

> <ROCS_FitTverskyCombo>
0.864 

> <ROCS_ColorScore>
-2.303

> <ROCS_Overlap>
1380.436

> <ROCS_Rank>
36                  

$$$$
ligprep_h3d.sdf:1068_297
  -OEChem-08212117123D

 62 68  0     1  0  0  0  0  0999 V2000
  -19.7652   -8.2750  -37.1295 C   0  0  0  0  0  0  0  0  0  0  0  0
  -20.5818   -9.3477  -36.7894 C   0  0  0  0  0  0  0  0  0  0  0  0
  -19.5011   -7.2843  -36.1903 C   0  0  0  0  0  0  0  0  0  0  0  0
  -20.7698   -4.9493  -29.5128 C   0  0  0  0  0  0  0  0  0  0  0  0
  -21.1057   -9.3830  -35.5072 C   0  0  0  0  0  0  0  0  0  0  0  0
  -21.5795   -4.2124  -30.3796 C   0  0  0  0  0  0  0  0  0  0  0  0
  -20.9650   -4.8126  -28.1173 C   0  0  0  0  0  0  0  0  0  0  0  0
  -21.9794   -3.9925  -27.5692 C   0  0  0  0  0  0  0  0  0  0  0  0
  -22.5379   -3.3843  -29.8377 C   0  0  0  0  0  0  0  0  0  0  0  0
  -22.7674   -3.2383  -28.4695 C   0  0  0  0  0  0  0  0  0  0  0  0
  -20.0735   -7.4119  -34.9350 C   0  0  0  0  0  0  0  0  0  0  0  0
  -21.7263   -4.0316  -31.7675 C   0  0  0  0  0  0  0  0  0  0  0  0
  -18.9632   -3.6543  -26.0835 C   0  0  0  0  0  0  0  0  0  0  0  0
  -19.1391   -5.9621  -25.0032 C   0  0  0  0  0  0  0  0  0  0  0  0
  -17.0156   -4.8324  -25.6197 C   0  0  0  0  0  0  0  0  0  0  0  0
  -20.1277   -4.0954  -33.7221 C   0  0  0  0  0  0  0  0  0  0  0  0
  -20.0744   -5.6161  -27.2081 C   0  0  0  0  0  0  0  0  0  0  0  0
  -20.9828   -6.1102  -32.9662 C   0  0  0  0  0  0  0  0  0  0  0  0
  -23.4958   -3.6280  -25.6405 C   0  0  0  0  0  0  0  0  0  0  0  0
  -19.8090   -6.3568  -33.8921 C   0  0  2  0  0  0  0  0  0  0  0  0
  -21.2302   -4.5713  -25.2267 C   0  0  2  0  0  0  0  0  0  0  0  0
  -23.3657   -2.8395  -24.3388 C   0  0  1  0  0  0  0  0  0  0  0  0
  -21.1941   -3.6980  -23.9341 C   0  0  2  0  0  0  0  0  0  0  0  0
  -19.8368   -4.9097  -25.8521 C   0  0  2  0  0  0  0  0  0  0  0  0
  -24.7230   -2.6540  -23.6731 C   0  0  0  0  0  0  0  0  0  0  0  0
  -20.3855   -4.2717  -22.7776 C   0  0  0  0  0  0  0  0  0  0  0  0
  -20.8717   -8.4393  -34.5678 N   0  0  0  0  0  0  0  0  0  0  0  0
  -22.6936   -3.1588  -32.0656 N   0  0  0  0  0  0  0  0  0  0  0  0
  -17.6561   -3.8545  -26.2604 N   0  5  0  0  0  0  0  0  0  0  0  0
  -17.7685   -5.8068  -24.9691 N   0  0  0  0  0  0  0  0  0  0  0  0
  -22.1552   -3.9002  -26.1847 N   0  0  1  0  0  0  0  0  0  0  0  0
  -20.9444   -4.6867  -32.7620 N   0  0  0  0  0  0  0  0  0  0  0  0
  -19.4836   -2.5465  -26.2167 O   0  0  0  0  0  0  0  0  0  0  0  0
  -19.7179   -6.9023  -24.4630 O   0  0  0  0  0  0  0  0  0  0  0  0
  -15.7850   -4.9217  -25.5928 O   0  0  0  0  0  0  0  0  0  0  0  0
  -19.9184   -2.9104  -33.9406 O   0  0  0  0  0  0  0  0  0  0  0  0
  -23.2037   -2.7475  -30.8397 O   0  0  0  0  0  0  0  0  0  0  0  0
  -19.5475   -5.0774  -34.4922 O   0  0  0  0  0  0  0  0  0  0  0  0
  -22.5307   -3.5496  -23.4262 O   0  0  0  0  0  0  0  0  0  0  0  0
  -23.6534   -2.3155  -28.0763 F   0  0  0  0  0  0  0  0  0  0  0  0
  -19.3354   -8.2113  -38.1247 H   0  0  0  0  0  0  0  0  0  0  0  0
  -20.8013  -10.1314  -37.5053 H   0  0  0  0  0  0  0  0  0  0  0  0
  -18.8656   -6.4424  -36.4431 H   0  0  0  0  0  0  0  0  0  0  0  0
  -19.9983   -5.6074  -29.9024 H   0  0  0  0  0  0  0  0  0  0  0  0
  -21.7484  -10.1984  -35.1922 H   0  0  0  0  0  0  0  0  0  0  0  0
  -20.5490   -6.5960  -27.0597 H   0  0  0  0  0  0  0  0  0  0  0  0
  -19.1149   -5.8092  -27.7067 H   0  0  0  0  0  0  0  0  0  0  0  0
  -21.9492   -6.3625  -33.4197 H   0  0  0  0  0  0  0  0  0  0  0  0
  -20.8845   -6.6446  -32.0154 H   0  0  0  0  0  0  0  0  0  0  0  0
  -23.9735   -4.5972  -25.4434 H   0  0  0  0  0  0  0  0  0  0  0  0
  -24.1730   -3.0868  -26.2979 H   0  0  0  0  0  0  0  0  0  0  0  0
  -18.9043   -6.6468  -33.3183 H   0  0  0  0  0  0  0  0  0  0  0  0
  -21.7252   -5.5177  -24.9619 H   0  0  0  0  0  0  0  0  0  0  0  0
  -22.9343   -1.8483  -24.5308 H   0  0  0  0  0  0  0  0  0  0  0  0
  -20.8034   -2.6955  -24.1442 H   0  0  0  0  0  0  0  0  0  0  0  0
  -25.1751   -3.6251  -23.4707 H   0  0  0  0  0  0  0  0  0  0  0  0
  -25.3845   -2.0855  -24.3270 H   0  0  0  0  0  0  0  0  0  0  0  0
  -24.6066   -2.1152  -22.7327 H   0  0  0  0  0  0  0  0  0  0  0  0
  -20.7416   -5.2727  -22.5337 H   0  0  0  0  0  0  0  0  0  0  0  0
  -20.4891   -3.6357  -21.8983 H   0  0  0  0  0  0  0  0  0  0  0  0
  -19.3317   -4.3282  -23.0510 H   0  0  0  0  0  0  0  0  0  0  0  0
  -17.2514   -6.4775  -24.4073 H   0  0  0  0  0  0  0  0  0  0  0  0
  1  2  2  0  0  0  0
  1  3  1  0  0  0  0
  2  5  1  0  0  0  0
  3 11  2  0  0  0  0
  4  6  2  0  0  0  0
  4  7  1  0  0  0  0
  5 27  2  0  0  0  0
  6  9  1  0  0  0  0
  6 12  1  0  0  0  0
  7  8  2  0  0  0  0
  7 17  1  0  0  0  0
  8 10  1  0  0  0  0
  8 31  1  0  0  0  0
  9 10  2  0  0  0  0
  9 37  1  0  0  0  0
 10 40  1  0  0  0  0
 11 20  1  0  0  0  0
 11 27  1  0  0  0  0
 12 28  2  0  0  0  0
 12 32  1  0  0  0  0
 13 24  1  0  0  0  0
 13 29  1  0  0  0  0
 13 33  2  0  0  0  0
 14 24  1  0  0  0  0
 14 30  1  0  0  0  0
 14 34  2  0  0  0  0
 15 29  1  0  0  0  0
 15 30  1  0  0  0  0
 15 35  2  0  0  0  0
 16 32  1  0  0  0  0
 16 36  2  0  0  0  0
 16 38  1  0  0  0  0
 17 24  1  0  0  0  0
 18 20  1  0  0  0  0
 18 32  1  0  0  0  0
 19 22  1  0  0  0  0
 19 31  1  0  0  0  0
 20 38  1  0  0  0  0
 21 23  1  0  0  0  0
 21 24  1  0  0  0  0
 21 31  1  0  0  0  0
 22 25  1  0  0  0  0
 22 39  1  0  0  0  0
 23 26  1  0  0  0  0
 23 39  1  0  0  0  0
 28 37  1  0  0  0  0
  1 41  1  0  0  0  0
  2 42  1  0  0  0  0
  3 43  1  0  0  0  0
  4 44  1  0  0  0  0
  5 45  1  0  0  0  0
 17 46  1  0  0  0  0
 17 47  1  0  0  0  0
 18 48  1  0  0  0  0
 18 49  1  0  0  0  0
 19 50  1  0  0  0  0
 19 51  1  0  0  0  0
 20 52  1  0  0  0  0
 21 53  1  0  0  0  0
 22 54  1  0  0  0  0
 23 55  1  0  0  0  0
 25 56  1  0  0  0  0
 25 57  1  0  0  0  0
 25 58  1  0  0  0  0
 26 59  1  0  0  0  0
 26 60  1  0  0  0  0
 26 61  1  0  0  0  0
 30 62  1  0  0  0  0
M  CHG  1  29  -1
M  END
> <SMILES>
C[C@@H]1CN2[C@H]([C@H](C)O1)C1(Cc3cc4c(noc4c(c32)F)N2CC(OC2=O)c2ccccn2)C(=O)NC(=O)NC1=O

> <FORMATTED_ID>
H3D-006630

> <MOLFORMULA>
C26H23FN6O7

> <Exact Mass>
550.16

> <XLogP>
0.65

> <TPSA_NOPS>
156.5

> <s_m_source_file>
ligprep_h3d.sdf

> <i_m_source_file_index>
1068

> <i_lp_mmshare_version>
55123

> <i_f3d_flags>
0

> <s_epik_input>
Tz1DMVtOSF1DKD1PKVtOSF1DKD1PKUMxMltDQEBIXTNOKFtDSDJdW0NAQEhdKFtDSDNdKU9bQ0BIXTNbQ0gzXSljNGMoW0NIMl0yKVtjSF1jNWMoYzRGKW9uYzVONltDSDJdW0NASF0oT0M2PU8pYzdbY0hdW2NIXVtjSF1bY0hdbjc=

> <s_epik_cmdline>
J2VwaWtfcHl0aG9uJywgJy1waHQnLCAnMC41JywgJy1waCcsICc3LjUnLCAnLXRuJywgJzgnLCAnLW1hJywgJzUwMCcsICctaW1hZScsICc8aW5maWxlLm1hZT4nLCAnLW9tYWUnLCAnPG91dGZpbGUubWFlPic=

> <r_lp_tautomer_probability>
1

> <r_epik_Ionization_Penalty>
0.457793

> <r_epik_Ionization_Penalty_Charging>
0.455373

> <r_epik_Ionization_Penalty_Neutral>
0.00241932

> <r_epik_State_Penalty>
0.458483

> <r_epik_Charging_Adjusted_Penalty>
0.913857

> <i_epik_Tot_Q>
-1

> <i_epik_Tot_abs_Q>
1

> <s_epik_Chemistry_Notes>
This compound has an ester and may undergo hydrolysis at high or low pH.

> <s_lp_Force_Field>
S-OPLS

> <r_lp_Energy>
58.7551

> <b_lp_Chiralities_Consistent>
1

> <s_lp_Variant>
ligprep_h3d.sdf:1068-2

> <ROCS_ShapeQuery>
_7L13

> <ROCS_TanimotoCombo>
0.734 

> <ROCS_ShapeTanimoto>
0.625 

> <ROCS_ColorTanimoto>
0.109 

> <ROCS_RefTversky>
0.823 

> <ROCS_RefColorTversky>
0.273 

> <ROCS_RefTverskyCombo>
1.096 

> <ROCS_FitTversky>
0.722 

> <ROCS_FitColorTversky>
0.154 

> <ROCS_FitTverskyCombo>
0.876 

> <ROCS_ColorScore>
-2.565

> <ROCS_Overlap>
1378.056

> <ROCS_Rank>
37                  

$$$$
ligprep_h3d.sdf:2415_765
  -OEChem-08212117123D

118122  0     1  0  0  0  0  0999 V2000
  -25.4434   -4.1229  -23.0075 C   0  0  0  0  0  0  0  0  0  0  0  0
  -23.2026   -4.2990  -23.8932 C   0  0  0  0  0  0  0  0  0  0  0  0
  -24.0667   -3.9618  -22.8515 C   0  0  0  0  0  0  0  0  0  0  0  0
  -25.9560   -4.6214  -24.2052 C   0  0  0  0  0  0  0  0  0  0  0  0
  -23.7152   -4.7974  -25.0910 C   0  0  0  0  0  0  0  0  0  0  0  0
  -25.0919   -4.9586  -25.2470 C   0  0  0  0  0  0  0  0  0  0  0  0
  -21.5149   -5.1021  -28.7850 C   0  0  0  0  0  0  0  0  0  0  0  0
  -17.6354   -6.2193  -25.7929 C   0  0  0  0  0  0  0  0  0  0  0  0
  -20.9120   -5.1842  -27.5932 C   0  0  0  0  0  0  0  0  0  0  0  0
  -16.5255   -5.5416  -25.4430 C   0  0  0  0  0  0  0  0  0  0  0  0
  -21.5792   -4.5800  -26.3955 C   0  0  0  0  0  0  0  0  0  0  0  0
  -23.9742   -2.4659  -28.2708 C   0  0  0  0  0  0  0  0  0  0  0  0
  -20.9494   -4.0943  -34.9793 C   0  0  0  0  0  0  0  0  0  0  0  0
  -18.9239   -7.8961  -36.0401 C   0  0  0  0  0  0  0  0  0  0  0  0
  -21.7617   -4.1039  -33.6727 C   0  0  0  0  0  0  0  0  0  0  0  0
  -19.3038   -7.5602  -34.5872 C   0  0  0  0  0  0  0  0  0  0  0  0
  -19.5251   -5.9864  -30.2977 C   0  0  0  0  0  0  0  0  0  0  0  0
  -22.9477   -4.3827  -30.5944 C   0  0  0  0  0  0  0  0  0  0  0  0
  -21.0007   -5.6520  -30.0930 C   0  0  2  0  0  0  0  0  0  0  0  0
  -22.8150   -4.3705  -29.0554 C   0  0  2  0  0  0  0  0  0  0  0  0
  -20.4962   -5.4996  -35.3626 C   0  0  1  0  0  0  0  0  0  0  0  0
  -19.8627   -5.6357  -32.8337 C   0  0  1  0  0  0  0  0  0  0  0  0
  -20.0265   -5.7097  -36.8278 C   0  0  1  0  0  0  0  0  0  0  0  0
  -19.8233   -7.2263  -37.0819 C   0  0  2  0  0  0  0  0  0  0  0  0
  -19.3025   -6.5609  -31.7116 C   0  0  2  0  0  0  0  0  0  0  0  0
  -19.4525   -6.0393  -34.3247 C   0  0  1  0  0  0  0  0  0  0  0  0
  -21.3689   -5.1926  -32.6126 C   0  0  1  0  0  0  0  0  0  0  0  0
  -21.5040   -4.6036  -31.1249 C   0  0  1  0  0  0  0  0  0  0  0  0
  -23.5188   -3.4289  -21.5708 C   0  0  0  0  0  0  0  0  0  0  0  0
  -15.1495   -6.1289  -25.3061 C   0  0  0  0  0  0  0  0  0  0  0  0
  -16.5974   -4.0652  -25.1542 C   0  0  0  0  0  0  0  0  0  0  0  0
  -23.7721   -1.0578  -27.7992 C   0  0  0  0  0  0  0  0  0  0  0  0
  -21.0024   -5.1208  -37.8549 C   0  0  0  0  0  0  0  0  0  0  0  0
  -18.0418   -5.3942  -34.5426 C   0  0  0  0  0  0  0  0  0  0  0  0
  -22.3388   -6.3999  -32.7993 C   0  0  0  0  0  0  0  0  0  0  0  0
  -20.7346   -3.2432  -30.9611 C   0  0  0  0  0  0  0  0  0  0  0  0
  -28.1722   -8.4709  -23.7493 C   0  0  0  0  0  0  0  0  0  0  0  0
  -30.2465   -5.6980  -24.3983 C   0  0  0  0  0  0  0  0  0  0  0  0
  -27.4328   -4.7867  -24.3528 C   0  0  0  0  0  0  0  0  0  0  0  0
  -19.0367   -5.6946  -25.9475 C   0  0  0  0  0  0  0  0  0  0  0  0
  -19.5412   -5.7808  -27.3948 C   0  0  0  0  0  0  0  0  0  0  0  0
  -27.8035   -7.0500  -23.3829 C   0  0  0  0  0  0  0  0  0  0  0  0
  -29.1843   -6.2784  -25.3061 C   0  0  0  0  0  0  0  0  0  0  0  0
  -22.8244   -5.1348  -26.1382 N   0  0  0  0  0  0  0  0  0  0  0  0
  -27.8444   -6.1915  -24.6212 N   0  3  0  0  0  0  0  0  0  0  0  0
  -20.9817   -3.7320  -25.7407 O   0  0  0  0  0  0  0  0  0  0  0  0
  -25.0662   -3.0121  -28.3492 O   0  0  0  0  0  0  0  0  0  0  0  0
  -25.5971   -5.4459  -26.4172 O   0  0  0  0  0  0  0  0  0  0  0  0
  -21.0753   -7.9166  -37.0621 O   0  0  0  0  0  0  0  0  0  0  0  0
  -19.8997   -7.8529  -31.7742 O   0  0  0  0  0  0  0  0  0  0  0  0
  -22.7688   -3.0292  -28.5916 O   0  0  0  0  0  0  0  0  0  0  0  0
  -26.1166   -3.8598  -22.1949 H   0  0  0  0  0  0  0  0  0  0  0  0
  -22.1294   -4.1722  -23.7686 H   0  0  0  0  0  0  0  0  0  0  0  0
  -17.5361   -7.2835  -26.0050 H   0  0  0  0  0  0  0  0  0  0  0  0
  -21.5838   -3.6482  -35.7518 H   0  0  0  0  0  0  0  0  0  0  0  0
  -20.0881   -3.4254  -34.8752 H   0  0  0  0  0  0  0  0  0  0  0  0
  -17.8815   -7.6145  -36.2248 H   0  0  0  0  0  0  0  0  0  0  0  0
  -18.9724   -8.9859  -36.1591 H   0  0  0  0  0  0  0  0  0  0  0  0
  -21.6996   -3.0914  -33.2683 H   0  0  0  0  0  0  0  0  0  0  0  0
  -22.8227   -4.2194  -33.9322 H   0  0  0  0  0  0  0  0  0  0  0  0
  -20.2427   -8.0734  -34.3501 H   0  0  0  0  0  0  0  0  0  0  0  0
  -18.5329   -7.9922  -33.9387 H   0  0  0  0  0  0  0  0  0  0  0  0
  -18.8969   -5.1010  -30.1502 H   0  0  0  0  0  0  0  0  0  0  0  0
  -19.2139   -6.7282  -29.5521 H   0  0  0  0  0  0  0  0  0  0  0  0
  -23.6018   -5.2171  -30.8666 H   0  0  0  0  0  0  0  0  0  0  0  0
  -23.3970   -3.4646  -30.9880 H   0  0  0  0  0  0  0  0  0  0  0  0
  -21.5542   -6.5927  -30.2051 H   0  0  0  0  0  0  0  0  0  0  0  0
  -23.6677   -4.8769  -28.5941 H   0  0  0  0  0  0  0  0  0  0  0  0
  -21.4019   -6.1102  -35.2975 H   0  0  0  0  0  0  0  0  0  0  0  0
  -19.3052   -4.7054  -32.6754 H   0  0  0  0  0  0  0  0  0  0  0  0
  -19.0711   -5.1989  -36.9881 H   0  0  0  0  0  0  0  0  0  0  0  0
  -19.3861   -7.3836  -38.0752 H   0  0  0  0  0  0  0  0  0  0  0  0
  -18.2251   -6.6985  -31.8571 H   0  0  0  0  0  0  0  0  0  0  0  0
  -23.3082   -4.2499  -20.8746 H   0  0  0  0  0  0  0  0  0  0  0  0
  -22.5905   -2.8674  -21.7376 H   0  0  0  0  0  0  0  0  0  0  0  0
  -24.2255   -2.7389  -21.0916 H   0  0  0  0  0  0  0  0  0  0  0  0
  -14.6199   -6.0693  -26.2627 H   0  0  0  0  0  0  0  0  0  0  0  0
  -14.5302   -5.6307  -24.5585 H   0  0  0  0  0  0  0  0  0  0  0  0
  -15.2188   -7.1833  -25.0182 H   0  0  0  0  0  0  0  0  0  0  0  0
  -16.8037   -3.8967  -24.0921 H   0  0  0  0  0  0  0  0  0  0  0  0
  -15.6647   -3.5454  -25.3972 H   0  0  0  0  0  0  0  0  0  0  0  0
  -17.3974   -3.6028  -25.7419 H   0  0  0  0  0  0  0  0  0  0  0  0
  -23.6224   -1.0471  -26.7168 H   0  0  0  0  0  0  0  0  0  0  0  0
  -24.6351   -0.4467  -28.0752 H   0  0  0  0  0  0  0  0  0  0  0  0
  -22.8823   -0.6391  -28.2783 H   0  0  0  0  0  0  0  0  0  0  0  0
  -21.9744   -5.5930  -37.7428 H   0  0  0  0  0  0  0  0  0  0  0  0
  -20.6254   -5.3017  -38.8576 H   0  0  0  0  0  0  0  0  0  0  0  0
  -21.0982   -4.0511  -37.6913 H   0  0  0  0  0  0  0  0  0  0  0  0
  -18.1312   -4.3368  -34.3632 H   0  0  0  0  0  0  0  0  0  0  0  0
  -17.7428   -5.5897  -35.5577 H   0  0  0  0  0  0  0  0  0  0  0  0
  -17.3600   -5.8481  -33.8446 H   0  0  0  0  0  0  0  0  0  0  0  0
  -22.0787   -7.1556  -32.0757 H   0  0  0  0  0  0  0  0  0  0  0  0
  -22.2192   -6.7755  -33.8028 H   0  0  0  0  0  0  0  0  0  0  0  0
  -23.3462   -6.0500  -32.6403 H   0  0  0  0  0  0  0  0  0  0  0  0
  -19.7346   -3.3894  -31.3264 H   0  0  0  0  0  0  0  0  0  0  0  0
  -20.7351   -2.9935  -29.9159 H   0  0  0  0  0  0  0  0  0  0  0  0
  -21.2567   -2.5030  -31.5393 H   0  0  0  0  0  0  0  0  0  0  0  0
  -29.1907   -8.5063  -24.1480 H   0  0  0  0  0  0  0  0  0  0  0  0
  -27.4961   -8.8711  -24.5120 H   0  0  0  0  0  0  0  0  0  0  0  0
  -28.1276   -9.1294  -22.8755 H   0  0  0  0  0  0  0  0  0  0  0  0
  -30.3067   -6.2745  -23.4702 H   0  0  0  0  0  0  0  0  0  0  0  0
  -30.0195   -4.6591  -24.1373 H   0  0  0  0  0  0  0  0  0  0  0  0
  -31.2316   -5.7216  -24.8760 H   0  0  0  0  0  0  0  0  0  0  0  0
  -27.9657   -4.4764  -23.4445 H   0  0  0  0  0  0  0  0  0  0  0  0
  -27.8241   -4.1855  -25.1840 H   0  0  0  0  0  0  0  0  0  0  0  0
  -19.7450   -6.1857  -25.2748 H   0  0  0  0  0  0  0  0  0  0  0  0
  -19.0286   -4.6389  -25.6477 H   0  0  0  0  0  0  0  0  0  0  0  0
  -19.5333   -6.8300  -27.7191 H   0  0  0  0  0  0  0  0  0  0  0  0
  -18.8285   -5.2626  -28.0490 H   0  0  0  0  0  0  0  0  0  0  0  0
  -26.7885   -6.9862  -22.9811 H   0  0  0  0  0  0  0  0  0  0  0  0
  -28.5121   -6.6194  -22.6700 H   0  0  0  0  0  0  0  0  0  0  0  0
  -29.1032   -5.7199  -26.2427 H   0  0  0  0  0  0  0  0  0  0  0  0
  -29.3680   -7.3351  -25.5195 H   0  0  0  0  0  0  0  0  0  0  0  0
  -23.1428   -5.8875  -26.7450 H   0  0  0  0  0  0  0  0  0  0  0  0
  -27.1576   -6.5977  -25.2773 H   0  0  0  0  0  0  0  0  0  0  0  0
  -24.8770   -5.6320  -27.0387 H   0  0  0  0  0  0  0  0  0  0  0  0
  -20.8808   -8.8382  -37.2871 H   0  0  0  0  0  0  0  0  0  0  0  0
  -19.4597   -8.3940  -31.1001 H   0  0  0  0  0  0  0  0  0  0  0  0
  1  3  1  0  0  0  0
  1  4  2  0  0  0  0
  2  3  2  0  0  0  0
  2  5  1  0  0  0  0
  3 29  1  0  0  0  0
  4  6  1  0  0  0  0
  4 39  1  0  0  0  0
  5  6  2  0  0  0  0
  5 44  1  0  0  0  0
  6 48  1  0  0  0  0
  7  9  2  0  0  0  0
  7 19  1  0  0  0  0
  7 20  1  0  0  0  0
  8 10  2  0  0  0  0
  8 40  1  0  0  0  0
  9 11  1  0  0  0  0
  9 41  1  0  0  0  0
 10 30  1  0  0  0  0
 10 31  1  0  0  0  0
 11 44  1  0  0  0  0
 11 46  2  0  0  0  0
 12 32  1  0  0  0  0
 12 47  2  0  0  0  0
 12 51  1  0  0  0  0
 13 15  1  0  0  0  0
 13 21  1  0  0  0  0
 14 16  1  0  0  0  0
 14 24  1  0  0  0  0
 15 27  1  0  0  0  0
 16 26  1  0  0  0  0
 17 19  1  0  0  0  0
 17 25  1  0  0  0  0
 18 20  1  0  0  0  0
 18 28  1  0  0  0  0
 19 28  1  0  0  0  0
 20 51  1  0  0  0  0
 21 23  1  0  0  0  0
 21 26  1  0  0  0  0
 22 25  1  0  0  0  0
 22 26  1  0  0  0  0
 22 27  1  0  0  0  0
 23 24  1  0  0  0  0
 23 33  1  0  0  0  0
 24 49  1  0  0  0  0
 25 50  1  0  0  0  0
 26 34  1  0  0  0  0
 27 28  1  0  0  0  0
 27 35  1  0  0  0  0
 28 36  1  0  0  0  0
 37 42  1  0  0  0  0
 38 43  1  0  0  0  0
 39 45  1  0  0  0  0
 40 41  1  0  0  0  0
 42 45  1  0  0  0  0
 43 45  1  0  0  0  0
  1 52  1  0  0  0  0
  2 53  1  0  0  0  0
  8 54  1  0  0  0  0
 13 55  1  0  0  0  0
 13 56  1  0  0  0  0
 14 57  1  0  0  0  0
 14 58  1  0  0  0  0
 15 59  1  0  0  0  0
 15 60  1  0  0  0  0
 16 61  1  0  0  0  0
 16 62  1  0  0  0  0
 17 63  1  0  0  0  0
 17 64  1  0  0  0  0
 18 65  1  0  0  0  0
 18 66  1  0  0  0  0
 19 67  1  0  0  0  0
 20 68  1  0  0  0  0
 21 69  1  0  0  0  0
 22 70  1  0  0  0  0
 23 71  1  0  0  0  0
 24 72  1  0  0  0  0
 25 73  1  0  0  0  0
 29 74  1  0  0  0  0
 29 75  1  0  0  0  0
 29 76  1  0  0  0  0
 30 77  1  0  0  0  0
 30 78  1  0  0  0  0
 30 79  1  0  0  0  0
 31 80  1  0  0  0  0
 31 81  1  0  0  0  0
 31 82  1  0  0  0  0
 32 83  1  0  0  0  0
 32 84  1  0  0  0  0
 32 85  1  0  0  0  0
 33 86  1  0  0  0  0
 33 87  1  0  0  0  0
 33 88  1  0  0  0  0
 34 89  1  0  0  0  0
 34 90  1  0  0  0  0
 34 91  1  0  0  0  0
 35 92  1  0  0  0  0
 35 93  1  0  0  0  0
 35 94  1  0  0  0  0
 36 95  1  0  0  0  0
 36 96  1  0  0  0  0
 36 97  1  0  0  0  0
 37 98  1  0  0  0  0
 37 99  1  0  0  0  0
 37100  1  0  0  0  0
 38101  1  0  0  0  0
 38102  1  0  0  0  0
 38103  1  0  0  0  0
 39104  1  0  0  0  0
 39105  1  0  0  0  0
 40106  1  0  0  0  0
 40107  1  0  0  0  0
 41108  1  0  0  0  0
 41109  1  0  0  0  0
 42110  1  0  0  0  0
 42111  1  0  0  0  0
 43112  1  0  0  0  0
 43113  1  0  0  0  0
 44114  1  0  0  0  0
 45115  1  0  0  0  0
 48116  1  0  0  0  0
 49117  1  0  0  0  0
 50118  1  0  0  0  0
M  CHG  1  45   1
M  END
> <SMILES>
CCN(CC)Cc1cc(cc(c1O)NC(=O)/C(=C/1\[C@H](C[C@@]2(C)[C@H]1C[C@@H](O)[C@H]1[C@@]3(C)CC[C@@H](O)[C@@H](C)[C@@H]3CC[C@@]12C)OC(=O)C)CCC=C(C)C)C

> <FORMATTED_ID>
H3D-005633

> <MOLFORMULA>
C43H66N2O6

> <Exact Mass>
706.49

> <XLogP>
7.74

> <TPSA_NOPS>
119.3

> <s_m_source_file>
ligprep_h3d.sdf

> <i_m_source_file_index>
2415

> <i_lp_mmshare_version>
55123

> <i_f3d_flags>
0

> <s_epik_input>
W0NIM11bQ0gyXU4oW0NIMl1bQ0gzXSlbQ0gyXWMxW2NIXWMoW0NIM10pW2NIXWMoYzFbT0hdKVtOSF1DKD1PKS9DKFtDSDJdW0NIMl1bQ0hdPUMoW0NIM10pW0NIM10pPUMoXFtDQEhdKFtDSDJdMilPQyg9TylbQ0gzXSlbQ0BASF0oW0NAXTIzW0NIM10pW0NIMl1bQ0BASF0oW09IXSlbQ0BIXTRbQ0BdNShbQ0gzXSlbQ0BIXShbQ0BIXShbQ0gzXSlbQ0BIXShbT0hdKVtDSDJdW0NIMl01KVtDSDJdW0NIMl1bQ0BdMzRbQ0gzXQ==

> <s_epik_cmdline>
J2VwaWtfcHl0aG9uJywgJy1waHQnLCAnMC41JywgJy1waCcsICc3LjUnLCAnLXRuJywgJzgnLCAnLW1hJywgJzUwMCcsICctaW1hZScsICc8aW5maWxlLm1hZT4nLCAnLW9tYWUnLCAnPG91dGZpbGUubWFlPic=

> <r_lp_tautomer_probability>
1

> <r_epik_Ionization_Penalty>
0.142754

> <r_epik_Ionization_Penalty_Charging>
0.051509

> <r_epik_Ionization_Penalty_Neutral>
0.0912447

> <r_epik_State_Penalty>
-0

> <r_epik_Charging_Adjusted_Penalty>
0.051509

> <i_epik_Tot_Q>
1

> <i_epik_Tot_abs_Q>
1

> <s_epik_Chemistry_Notes>
This compound has an ester and may undergo hydrolysis at high or low pH.

> <s_lp_Force_Field>
S-OPLS

> <r_lp_Energy>
100.491

> <b_lp_Chiralities_Consistent>
1

> <s_lp_Variant>
ligprep_h3d.sdf:2415-1

> <ROCS_ShapeQuery>
_7L13

> <ROCS_TanimotoCombo>
0.639 

> <ROCS_ShapeTanimoto>
0.556 

> <ROCS_ColorTanimoto>
0.082 

> <ROCS_RefTversky>
0.823 

> <ROCS_RefColorTversky>
0.217 

> <ROCS_RefTverskyCombo>
1.040 

> <ROCS_FitTversky>
0.632 

> <ROCS_FitColorTversky>
0.117 

> <ROCS_FitTverskyCombo>
0.749 

> <ROCS_ColorScore>
-2.053

> <ROCS_Overlap>
1390.422

> <ROCS_Rank>
38                  

$$$$
ligprep_h3d.sdf:2384_1836
  -OEChem-08212117123D

102106  0     1  0  0  0  0  0999 V2000
  -25.3002   -3.9637  -24.9520 C   0  0  0  0  0  0  0  0  0  0  0  0
  -25.8790   -4.7385  -23.9469 C   0  0  0  0  0  0  0  0  0  0  0  0
  -23.1902   -4.0143  -23.7761 C   0  0  0  0  0  0  0  0  0  0  0  0
  -23.9558   -3.6016  -24.8667 C   0  0  0  0  0  0  0  0  0  0  0  0
  -25.1134   -5.1512  -22.8563 C   0  0  0  0  0  0  0  0  0  0  0  0
  -23.7690   -4.7891  -22.7710 C   0  0  0  0  0  0  0  0  0  0  0  0
  -21.4698   -4.2688  -29.8504 C   0  0  0  0  0  0  0  0  0  0  0  0
  -18.4634   -5.6831  -26.0814 C   0  0  0  0  0  0  0  0  0  0  0  0
  -21.0166   -4.1906  -28.5938 C   0  0  0  0  0  0  0  0  0  0  0  0
  -17.2413   -5.3225  -25.6457 C   0  0  0  0  0  0  0  0  0  0  0  0
  -21.5824   -3.1583  -27.6707 C   0  0  0  0  0  0  0  0  0  0  0  0
  -23.1342   -1.0631  -30.3143 C   0  0  0  0  0  0  0  0  0  0  0  0
  -20.1241   -5.0523  -35.9562 C   0  0  0  0  0  0  0  0  0  0  0  0
  -19.1523   -9.3789  -35.8232 C   0  0  0  0  0  0  0  0  0  0  0  0
  -21.0147   -4.5250  -34.8177 C   0  0  0  0  0  0  0  0  0  0  0  0
  -19.5456   -8.5990  -34.5561 C   0  0  0  0  0  0  0  0  0  0  0  0
  -19.6834   -5.9766  -30.8105 C   0  0  0  0  0  0  0  0  0  0  0  0
  -22.4877   -3.7033  -31.9691 C   0  0  0  0  0  0  0  0  0  0  0  0
  -21.0198   -5.2450  -30.9098 C   0  0  2  0  0  0  0  0  0  0  0  0
  -22.4877   -3.3313  -30.4697 C   0  0  2  0  0  0  0  0  0  0  0  0
  -20.0485   -6.5759  -35.9429 C   0  0  1  0  0  0  0  0  0  0  0  0
  -19.6942   -6.2137  -33.3820 C   0  0  1  0  0  0  0  0  0  0  0  0
  -19.5332   -7.2637  -37.2364 C   0  0  1  0  0  0  0  0  0  0  0  0
  -19.7387   -8.7960  -37.1113 C   0  0  2  0  0  0  0  0  0  0  0  0
  -19.5102   -6.9302  -32.0102 C   0  0  2  0  0  0  0  0  0  0  0  0
  -19.2875   -7.0740  -34.6659 C   0  0  1  0  0  0  0  0  0  0  0  0
  -21.0311   -5.3687  -33.4943 C   0  0  1  0  0  0  0  0  0  0  0  0
  -21.1227   -4.4044  -32.2137 C   0  0  1  0  0  0  0  0  0  0  0  0
  -16.2616   -6.3680  -25.1819 C   0  0  0  0  0  0  0  0  0  0  0  0
  -16.7251   -3.9140  -25.5623 C   0  0  0  0  0  0  0  0  0  0  0  0
  -22.7691    0.1188  -29.4682 C   0  0  0  0  0  0  0  0  0  0  0  0
  -20.2165   -6.7336  -38.5038 C   0  0  0  0  0  0  0  0  0  0  0  0
  -17.7400   -6.8778  -34.8082 C   0  0  0  0  0  0  0  0  0  0  0  0
  -22.2788   -6.3032  -33.5497 C   0  0  0  0  0  0  0  0  0  0  0  0
  -20.0224   -3.2828  -32.2447 C   0  0  0  0  0  0  0  0  0  0  0  0
  -24.3322   -1.8148  -26.6152 C   0  0  0  0  0  0  0  0  0  0  0  0
  -19.5683   -4.7971  -26.5882 C   0  0  0  0  0  0  0  0  0  0  0  0
  -19.8855   -5.0410  -28.0700 C   0  0  0  0  0  0  0  0  0  0  0  0
  -23.3292   -2.7607  -25.9579 C   0  0  2  0  0  0  0  0  0  0  0  0
  -22.6836   -3.5873  -26.9513 N   0  0  0  0  0  0  0  0  0  0  0  0
  -21.0406   -2.0617  -27.5551 O   0  0  0  0  0  0  0  0  0  0  0  0
  -24.1982   -1.1787  -30.9074 O   0  0  0  0  0  0  0  0  0  0  0  0
  -21.1301   -9.1245  -37.1258 O   0  0  0  0  0  0  0  0  0  0  0  0
  -20.4354   -8.0049  -31.8712 O   0  0  0  0  0  0  0  0  0  0  0  0
  -22.1102   -1.9711  -30.3162 O   0  0  0  0  0  0  0  0  0  0  0  0
  -25.8885   -6.1089  -21.6434 Cl  0  0  0  0  0  0  0  0  0  0  0  0
  -22.7688   -5.2696  -21.4452 Cl  0  0  0  0  0  0  0  0  0  0  0  0
  -25.9044   -3.6458  -25.7978 H   0  0  0  0  0  0  0  0  0  0  0  0
  -26.9282   -5.0112  -24.0297 H   0  0  0  0  0  0  0  0  0  0  0  0
  -22.1426   -3.7277  -23.7174 H   0  0  0  0  0  0  0  0  0  0  0  0
  -18.7099   -6.7445  -26.0869 H   0  0  0  0  0  0  0  0  0  0  0  0
  -20.5418   -4.6754  -36.8952 H   0  0  0  0  0  0  0  0  0  0  0  0
  -19.1229   -4.6149  -35.8762 H   0  0  0  0  0  0  0  0  0  0  0  0
  -18.0610   -9.4222  -35.9074 H   0  0  0  0  0  0  0  0  0  0  0  0
  -19.4915  -10.4154  -35.7013 H   0  0  0  0  0  0  0  0  0  0  0  0
  -20.7082   -3.4912  -34.6455 H   0  0  0  0  0  0  0  0  0  0  0  0
  -22.0401   -4.4356  -35.2012 H   0  0  0  0  0  0  0  0  0  0  0  0
  -20.6067   -8.7843  -34.3541 H   0  0  0  0  0  0  0  0  0  0  0  0
  -18.9829   -9.0284  -33.7192 H   0  0  0  0  0  0  0  0  0  0  0  0
  -18.8487   -5.2678  -30.7722 H   0  0  0  0  0  0  0  0  0  0  0  0
  -19.6548   -6.5563  -29.8798 H   0  0  0  0  0  0  0  0  0  0  0  0
  -23.3224   -4.3899  -32.1428 H   0  0  0  0  0  0  0  0  0  0  0  0
  -22.6293   -2.8346  -32.6209 H   0  0  0  0  0  0  0  0  0  0  0  0
  -21.8013   -6.0149  -30.8904 H   0  0  0  0  0  0  0  0  0  0  0  0
  -23.4834   -3.4744  -30.0402 H   0  0  0  0  0  0  0  0  0  0  0  0
  -21.0902   -6.9045  -35.8797 H   0  0  0  0  0  0  0  0  0  0  0  0
  -18.9157   -5.4427  -33.3539 H   0  0  0  0  0  0  0  0  0  0  0  0
  -18.4635   -7.0650  -37.3615 H   0  0  0  0  0  0  0  0  0  0  0  0
  -19.2799   -9.3057  -37.9670 H   0  0  0  0  0  0  0  0  0  0  0  0
  -18.5052   -7.3639  -31.9577 H   0  0  0  0  0  0  0  0  0  0  0  0
  -15.6498   -6.7131  -26.0220 H   0  0  0  0  0  0  0  0  0  0  0  0
  -15.5822   -5.9914  -24.4099 H   0  0  0  0  0  0  0  0  0  0  0  0
  -16.7951   -7.2277  -24.7633 H   0  0  0  0  0  0  0  0  0  0  0  0
  -16.9276   -3.4266  -24.6070 H   0  0  0  0  0  0  0  0  0  0  0  0
  -17.1809   -3.3008  -26.3468 H   0  0  0  0  0  0  0  0  0  0  0  0
  -15.6392   -3.9033  -25.7056 H   0  0  0  0  0  0  0  0  0  0  0  0
  -23.0868   -0.0513  -28.4366 H   0  0  0  0  0  0  0  0  0  0  0  0
  -23.2350    1.0216  -29.8713 H   0  0  0  0  0  0  0  0  0  0  0  0
  -21.6835    0.2525  -29.4811 H   0  0  0  0  0  0  0  0  0  0  0  0
  -21.2873   -6.9044  -38.4362 H   0  0  0  0  0  0  0  0  0  0  0  0
  -19.8211   -7.2528  -39.3723 H   0  0  0  0  0  0  0  0  0  0  0  0
  -20.0248   -5.6686  -38.5999 H   0  0  0  0  0  0  0  0  0  0  0  0
  -17.5469   -5.8219  -34.8854 H   0  0  0  0  0  0  0  0  0  0  0  0
  -17.4222   -7.3945  -35.6971 H   0  0  0  0  0  0  0  0  0  0  0  0
  -17.2728   -7.2929  -33.9321 H   0  0  0  0  0  0  0  0  0  0  0  0
  -22.3011   -6.8888  -32.6447 H   0  0  0  0  0  0  0  0  0  0  0  0
  -22.1837   -6.9405  -34.4142 H   0  0  0  0  0  0  0  0  0  0  0  0
  -23.1590   -5.6852  -33.6261 H   0  0  0  0  0  0  0  0  0  0  0  0
  -19.0752   -3.7614  -32.4137 H   0  0  0  0  0  0  0  0  0  0  0  0
  -20.0421   -2.7821  -31.2941 H   0  0  0  0  0  0  0  0  0  0  0  0
  -20.2674   -2.6094  -33.0455 H   0  0  0  0  0  0  0  0  0  0  0  0
  -25.1605   -2.3706  -27.0681 H   0  0  0  0  0  0  0  0  0  0  0  0
  -24.7515   -1.1247  -25.8744 H   0  0  0  0  0  0  0  0  0  0  0  0
  -23.8677   -1.2037  -27.3973 H   0  0  0  0  0  0  0  0  0  0  0  0
  -20.4797   -4.8806  -25.9898 H   0  0  0  0  0  0  0  0  0  0  0  0
  -19.2358   -3.7575  -26.4730 H   0  0  0  0  0  0  0  0  0  0  0  0
  -18.9839   -4.8397  -28.6626 H   0  0  0  0  0  0  0  0  0  0  0  0
  -20.1083   -6.1055  -28.2220 H   0  0  0  0  0  0  0  0  0  0  0  0
  -22.5284   -2.1487  -25.5251 H   0  0  0  0  0  0  0  0  0  0  0  0
  -23.0515   -4.5173  -27.1282 H   0  0  0  0  0  0  0  0  0  0  0  0
  -21.1810  -10.0915  -37.1071 H   0  0  0  0  0  0  0  0  0  0  0  0
  -20.2218   -8.4473  -31.0349 H   0  0  0  0  0  0  0  0  0  0  0  0
  1  2  1  0  0  0  0
  1  4  2  0  0  0  0
  2  5  2  0  0  0  0
  3  4  1  0  0  0  0
  3  6  2  0  0  0  0
  4 39  1  0  0  0  0
  5  6  1  0  0  0  0
  5 46  1  0  0  0  0
  6 47  1  0  0  0  0
  7  9  2  0  0  0  0
  7 19  1  0  0  0  0
  7 20  1  0  0  0  0
  8 10  2  0  0  0  0
  8 37  1  0  0  0  0
  9 11  1  0  0  0  0
  9 38  1  0  0  0  0
 10 29  1  0  0  0  0
 10 30  1  0  0  0  0
 11 40  1  0  0  0  0
 11 41  2  0  0  0  0
 12 31  1  0  0  0  0
 12 42  2  0  0  0  0
 12 45  1  0  0  0  0
 13 15  1  0  0  0  0
 13 21  1  0  0  0  0
 14 16  1  0  0  0  0
 14 24  1  0  0  0  0
 15 27  1  0  0  0  0
 16 26  1  0  0  0  0
 17 19  1  0  0  0  0
 17 25  1  0  0  0  0
 18 20  1  0  0  0  0
 18 28  1  0  0  0  0
 19 28  1  0  0  0  0
 20 45  1  0  0  0  0
 21 23  1  0  0  0  0
 21 26  1  0  0  0  0
 22 25  1  0  0  0  0
 22 26  1  0  0  0  0
 22 27  1  0  0  0  0
 23 24  1  0  0  0  0
 23 32  1  0  0  0  0
 24 43  1  0  0  0  0
 25 44  1  0  0  0  0
 26 33  1  0  0  0  0
 27 28  1  0  0  0  0
 27 34  1  0  0  0  0
 28 35  1  0  0  0  0
 36 39  1  0  0  0  0
 37 38  1  0  0  0  0
 39 40  1  0  0  0  0
  1 48  1  0  0  0  0
  2 49  1  0  0  0  0
  3 50  1  0  0  0  0
  8 51  1  0  0  0  0
 13 52  1  0  0  0  0
 13 53  1  0  0  0  0
 14 54  1  0  0  0  0
 14 55  1  0  0  0  0
 15 56  1  0  0  0  0
 15 57  1  0  0  0  0
 16 58  1  0  0  0  0
 16 59  1  0  0  0  0
 17 60  1  0  0  0  0
 17 61  1  0  0  0  0
 18 62  1  0  0  0  0
 18 63  1  0  0  0  0
 19 64  1  0  0  0  0
 20 65  1  0  0  0  0
 21 66  1  0  0  0  0
 22 67  1  0  0  0  0
 23 68  1  0  0  0  0
 24 69  1  0  0  0  0
 25 70  1  0  0  0  0
 29 71  1  0  0  0  0
 29 72  1  0  0  0  0
 29 73  1  0  0  0  0
 30 74  1  0  0  0  0
 30 75  1  0  0  0  0
 30 76  1  0  0  0  0
 31 77  1  0  0  0  0
 31 78  1  0  0  0  0
 31 79  1  0  0  0  0
 32 80  1  0  0  0  0
 32 81  1  0  0  0  0
 32 82  1  0  0  0  0
 33 83  1  0  0  0  0
 33 84  1  0  0  0  0
 33 85  1  0  0  0  0
 34 86  1  0  0  0  0
 34 87  1  0  0  0  0
 34 88  1  0  0  0  0
 35 89  1  0  0  0  0
 35 90  1  0  0  0  0
 35 91  1  0  0  0  0
 36 92  1  0  0  0  0
 36 93  1  0  0  0  0
 36 94  1  0  0  0  0
 37 95  1  0  0  0  0
 37 96  1  0  0  0  0
 38 97  1  0  0  0  0
 38 98  1  0  0  0  0
 39 99  1  0  0  0  0
 40100  1  0  0  0  0
 43101  1  0  0  0  0
 44102  1  0  0  0  0
M  END
> <SMILES>
CC(NC(=O)/C(=C/1\[C@H](C[C@@]2(C)[C@H]1C[C@@H](O)[C@H]1[C@@]3(C)CC[C@@H](O)[C@@H](C)[C@@H]3CC[C@@]12C)OC(=O)C)CCC=C(C)C)c1ccc(c(c1)Cl)Cl

> <FORMATTED_ID>
H3D-005473

> <MOLFORMULA>
C39H55Cl2NO5

> <Exact Mass>
687.35

> <XLogP>
8.78

> <TPSA_NOPS>
95.9

> <s_m_source_file>
ligprep_h3d.sdf

> <i_m_source_file_index>
2384

> <i_lp_mmshare_version>
55123

> <i_f3d_flags>
0

> <s_epik_input>
W2NIXTFjKENsKWMoQ2wpW2NIXVtjSF1jMVtDQEhdKFtDSDNdKVtOSF1DKD1PKS9DKFtDSDJdW0NIMl1bQ0hdPUMoW0NIM10pW0NIM10pPUMoXFtDQEhdKFtDSDJdMilPQyg9TylbQ0gzXSlbQ0BASF0oW0NAXTIzW0NIM10pW0NIMl1bQ0BASF0oW09IXSlbQ0BIXTRbQ0BdNShbQ0gzXSlbQ0BIXShbQ0BIXShbQ0gzXSlbQ0BIXShbT0hdKVtDSDJdW0NIMl01KVtDSDJdW0NIMl1bQ0BdMzRbQ0gzXQ==

> <s_epik_cmdline>
J2VwaWtfcHl0aG9uJywgJy1waHQnLCAnMC41JywgJy1waCcsICc3LjUnLCAnLXRuJywgJzgnLCAnLW1hJywgJzUwMCcsICctaW1hZScsICc8aW5maWxlLm1hZT4nLCAnLW9tYWUnLCAnPG91dGZpbGUubWFlPic=

> <r_lp_tautomer_probability>
1

> <r_epik_Ionization_Penalty>
1.59207e-06

> <r_epik_Ionization_Penalty_Charging>
0

> <r_epik_Ionization_Penalty_Neutral>
1.59207e-06

> <r_epik_State_Penalty>
-0

> <r_epik_Charging_Adjusted_Penalty>
0

> <i_epik_Tot_Q>
0

> <i_epik_Tot_abs_Q>
0

> <s_epik_Chemistry_Notes>
This compound has an ester and may undergo hydrolysis at high or low pH.

> <s_lp_Force_Field>
S-OPLS

> <r_lp_Energy>
85.3151

> <b_lp_Chiralities_Consistent>
1

> <s_lp_Variant>
ligprep_h3d.sdf:2384-1

> <ROCS_ShapeQuery>
_7L13

> <ROCS_TanimotoCombo>
0.696 

> <ROCS_ShapeTanimoto>
0.595 

> <ROCS_ColorTanimoto>
0.100 

> <ROCS_RefTversky>
0.823 

> <ROCS_RefColorTversky>
0.227 

> <ROCS_RefTverskyCombo>
1.050 

> <ROCS_FitTversky>
0.683 

> <ROCS_FitColorTversky>
0.152 

> <ROCS_FitTverskyCombo>
0.835 

> <ROCS_ColorScore>
-2.098

> <ROCS_Overlap>
1382.223

> <ROCS_Rank>
39                  

$$$$
ligprep_h3d.sdf:1081_1970
  -OEChem-08212117123D

 59 64  0     1  0  0  0  0  0999 V2000
  -20.8437   -4.9446  -29.5480 C   0  0  0  0  0  0  0  0  0  0  0  0
  -21.6991   -4.2530  -30.4080 C   0  0  0  0  0  0  0  0  0  0  0  0
  -20.9854   -4.7595  -28.1511 C   0  0  0  0  0  0  0  0  0  0  0  0
  -21.9874   -3.9322  -27.5916 C   0  0  0  0  0  0  0  0  0  0  0  0
  -22.6500   -3.4220  -29.8581 C   0  0  0  0  0  0  0  0  0  0  0  0
  -22.8272   -3.2292  -28.4878 C   0  0  0  0  0  0  0  0  0  0  0  0
  -21.9047   -4.1270  -31.7944 C   0  0  0  0  0  0  0  0  0  0  0  0
  -18.9564   -3.5164  -26.1951 C   0  0  0  0  0  0  0  0  0  0  0  0
  -19.0413   -5.8410  -25.0837 C   0  0  0  0  0  0  0  0  0  0  0  0
  -19.1161   -6.6149  -35.6345 C   0  0  0  0  0  0  0  0  0  0  0  0
  -16.8815   -4.8087  -25.7525 C   0  0  0  0  0  0  0  0  0  0  0  0
  -20.0328   -5.5048  -27.2548 C   0  0  0  0  0  0  0  0  0  0  0  0
  -19.0491   -8.0361  -35.1598 C   0  0  0  0  0  0  0  0  0  0  0  0
  -20.0721   -8.0446  -34.0493 C   0  0  0  0  0  0  0  0  0  0  0  0
  -23.1765   -2.9727  -25.6299 C   0  0  0  0  0  0  0  0  0  0  0  0
  -21.1641   -4.4472  -25.2590 C   0  0  2  0  0  0  0  0  0  0  0  0
  -19.9784   -6.6323  -33.5171 C   0  0  2  0  0  0  0  0  0  0  0  0
  -23.5121   -3.3679  -24.1890 C   0  0  1  0  0  0  0  0  0  0  0  0
  -21.1059   -3.5375  -23.9974 C   0  0  2  0  0  0  0  0  0  0  0  0
  -19.7863   -4.7787  -25.9087 C   0  0  0  0  0  0  0  0  0  0  0  0
  -24.3643   -4.6331  -24.1093 C   0  0  0  0  0  0  0  0  0  0  0  0
  -20.1053   -3.9435  -22.9220 C   0  0  0  0  0  0  0  0  0  0  0  0
  -21.2570   -6.1543  -32.8556 C   0  0  0  0  0  0  0  0  0  0  0  0
  -22.9011   -3.2848  -32.0845 N   0  0  0  0  0  0  0  0  0  0  0  0
  -17.5838   -3.7065  -26.2184 N   0  0  0  0  0  0  0  0  0  0  0  0
  -17.6591   -5.8061  -25.1817 N   0  0  0  0  0  0  0  0  0  0  0  0
  -22.1184   -3.8126  -26.2060 N   0  0  3  0  0  0  0  0  0  0  0  0
  -19.4585   -2.4220  -26.4511 O   0  0  0  0  0  0  0  0  0  0  0  0
  -19.6221   -6.7220  -24.4483 O   0  0  0  0  0  0  0  0  0  0  0  0
  -18.6879   -6.2020  -36.7010 O   0  0  0  0  0  0  0  0  0  0  0  0
  -15.6524   -4.8786  -25.8049 O   0  0  0  0  0  0  0  0  0  0  0  0
  -23.3701   -2.8378  -30.8547 O   0  0  0  0  0  0  0  0  0  0  0  0
  -19.7005   -5.8329  -34.6751 O   0  0  0  0  0  0  0  0  0  0  0  0
  -22.3795   -3.5296  -23.3406 O   0  0  0  0  0  0  0  0  0  0  0  0
  -21.2469   -4.7188  -32.8003 O   0  0  0  0  0  0  0  0  0  0  0  0
  -23.7182   -2.3106  -28.0968 F   0  0  0  0  0  0  0  0  0  0  0  0
  -20.0772   -5.6039  -29.9454 H   0  0  0  0  0  0  0  0  0  0  0  0
  -20.4547   -6.5053  -27.0864 H   0  0  0  0  0  0  0  0  0  0  0  0
  -19.0774   -5.6507  -27.7771 H   0  0  0  0  0  0  0  0  0  0  0  0
  -19.3174   -8.7318  -35.9581 H   0  0  0  0  0  0  0  0  0  0  0  0
  -18.0416   -8.2423  -34.7877 H   0  0  0  0  0  0  0  0  0  0  0  0
  -21.0654   -8.2387  -34.4734 H   0  0  0  0  0  0  0  0  0  0  0  0
  -19.8763   -8.8045  -33.2876 H   0  0  0  0  0  0  0  0  0  0  0  0
  -24.0772   -3.0958  -26.2666 H   0  0  0  0  0  0  0  0  0  0  0  0
  -22.9824   -1.8890  -25.6383 H   0  0  0  0  0  0  0  0  0  0  0  0
  -21.6428   -5.3928  -24.9605 H   0  0  0  0  0  0  0  0  0  0  0  0
  -19.1371   -6.5229  -32.8224 H   0  0  0  0  0  0  0  0  0  0  0  0
  -24.1556   -2.5388  -23.7306 H   0  0  0  0  0  0  0  0  0  0  0  0
  -20.8724   -2.4939  -24.2777 H   0  0  0  0  0  0  0  0  0  0  0  0
  -23.8182   -5.4776  -24.5298 H   0  0  0  0  0  0  0  0  0  0  0  0
  -25.2890   -4.4956  -24.6698 H   0  0  0  0  0  0  0  0  0  0  0  0
  -24.6096   -4.8525  -23.0701 H   0  0  0  0  0  0  0  0  0  0  0  0
  -20.2918   -4.9705  -22.6079 H   0  0  0  0  0  0  0  0  0  0  0  0
  -20.2000   -3.2865  -22.0575 H   0  0  0  0  0  0  0  0  0  0  0  0
  -19.0897   -3.8716  -23.3115 H   0  0  0  0  0  0  0  0  0  0  0  0
  -21.3314   -6.5458  -31.8367 H   0  0  0  0  0  0  0  0  0  0  0  0
  -22.1305   -6.4789  -33.4290 H   0  0  0  0  0  0  0  0  0  0  0  0
  -17.0308   -2.9561  -26.6210 H   0  0  0  0  0  0  0  0  0  0  0  0
  -17.1563   -6.5705  -24.7404 H   0  0  0  0  0  0  0  0  0  0  0  0
  1  2  2  0  0  0  0
  1  3  1  0  0  0  0
  2  5  1  0  0  0  0
  2  7  1  0  0  0  0
  3  4  2  0  0  0  0
  3 12  1  0  0  0  0
  4  6  1  0  0  0  0
  4 27  1  0  0  0  0
  5  6  2  0  0  0  0
  5 32  1  0  0  0  0
  6 36  1  0  0  0  0
  7 24  2  0  0  0  0
  7 35  1  0  0  0  0
  8 20  1  0  0  0  0
  8 25  1  0  0  0  0
  8 28  2  0  0  0  0
  9 20  1  0  0  0  0
  9 26  1  0  0  0  0
  9 29  2  0  0  0  0
 10 13  1  0  0  0  0
 10 30  2  0  0  0  0
 10 33  1  0  0  0  0
 11 25  1  0  0  0  0
 11 26  1  0  0  0  0
 11 31  2  0  0  0  0
 12 20  1  0  0  0  0
 13 14  1  0  0  0  0
 14 17  1  0  0  0  0
 15 18  1  0  0  0  0
 15 27  1  0  0  0  0
 16 19  1  0  0  0  0
 16 20  1  0  0  0  0
 16 27  1  0  0  0  0
 17 23  1  0  0  0  0
 17 33  1  0  0  0  0
 18 21  1  0  0  0  0
 18 34  1  0  0  0  0
 19 22  1  0  0  0  0
 19 34  1  0  0  0  0
 23 35  1  0  0  0  0
 24 32  1  0  0  0  0
  1 37  1  0  0  0  0
 12 38  1  0  0  0  0
 12 39  1  0  0  0  0
 13 40  1  0  0  0  0
 13 41  1  0  0  0  0
 14 42  1  0  0  0  0
 14 43  1  0  0  0  0
 15 44  1  0  0  0  0
 15 45  1  0  0  0  0
 16 46  1  0  0  0  0
 17 47  1  0  0  0  0
 18 48  1  0  0  0  0
 19 49  1  0  0  0  0
 21 50  1  0  0  0  0
 21 51  1  0  0  0  0
 21 52  1  0  0  0  0
 22 53  1  0  0  0  0
 22 54  1  0  0  0  0
 22 55  1  0  0  0  0
 23 56  1  0  0  0  0
 23 57  1  0  0  0  0
 25 58  1  0  0  0  0
 26 59  1  0  0  0  0
M  END
> <SMILES>
C[C@@H]1CN2[C@H]([C@H](C)O1)C1(Cc3cc4c(noc4c(c32)F)OC[C@H]2CCC(=O)O2)C(=O)NC(=O)NC1=O

> <FORMATTED_ID>
H3D-006689

> <MOLFORMULA>
C23H23FN4O8

> <Exact Mass>
502.15

> <XLogP>
0.83

> <TPSA_NOPS>
149.6

> <s_m_source_file>
ligprep_h3d.sdf

> <i_m_source_file_index>
1081

> <i_lp_mmshare_version>
55123

> <i_f3d_flags>
0

> <s_epik_input>
Tz1DMVtOSF1DKD1PKVtOSF1DKD1PKUMxMltDQEBIXTNOKFtDSDJdW0NAQEhdKFtDSDNdKU9bQ0BIXTNbQ0gzXSljNGMoW0NIMl0yKVtjSF1jNWMoYzRGKW9uYzVPW0NIMl1bQ0BIXTZbQ0gyXVtDSDJdQyg9TylPNg==

> <s_epik_cmdline>
J2VwaWtfcHl0aG9uJywgJy1waHQnLCAnMC41JywgJy1waCcsICc3LjUnLCAnLXRuJywgJzgnLCAnLW1hJywgJzUwMCcsICctaW1hZScsICc8aW5maWxlLm1hZT4nLCAnLW9tYWUnLCAnPG91dGZpbGUubWFlPic=

> <r_lp_tautomer_probability>
1

> <r_epik_Ionization_Penalty>
0.369127

> <r_epik_Ionization_Penalty_Charging>
0

> <r_epik_Ionization_Penalty_Neutral>
0.369127

> <r_epik_State_Penalty>
0.366447

> <r_epik_Charging_Adjusted_Penalty>
0.366447

> <i_epik_Tot_Q>
0

> <i_epik_Tot_abs_Q>
0

> <s_epik_Chemistry_Notes>
This compound has an ester and may undergo hydrolysis at high or low pH.

> <s_lp_Force_Field>
S-OPLS

> <r_lp_Energy>
39.0791

> <b_lp_Chiralities_Consistent>
1

> <s_lp_Variant>
ligprep_h3d.sdf:1081-1

> <ROCS_ShapeQuery>
_7L13

> <ROCS_TanimotoCombo>
0.812 

> <ROCS_ShapeTanimoto>
0.685 

> <ROCS_ColorTanimoto>
0.127 

> <ROCS_RefTversky>
0.823 

> <ROCS_RefColorTversky>
0.291 

> <ROCS_RefTverskyCombo>
1.114 

> <ROCS_FitTversky>
0.804 

> <ROCS_FitColorTversky>
0.184 

> <ROCS_FitTverskyCombo>
0.987 

> <ROCS_ColorScore>
-2.707

> <ROCS_Overlap>
1367.931

> <ROCS_Rank>
40                  

$$$$
ligprep_h3d.sdf:919_1746
  -OEChem-08212117123D

 62 67  0     1  0  0  0  0  0999 V2000
  -22.4504   -2.9553  -22.0348 C   0  0  0  0  0  0  0  0  0  0  0  0
  -20.9110   -5.0695  -29.5534 C   0  0  0  0  0  0  0  0  0  0  0  0
  -21.7233   -4.3292  -30.4149 C   0  0  0  0  0  0  0  0  0  0  0  0
  -21.0386   -4.8694  -28.1576 C   0  0  0  0  0  0  0  0  0  0  0  0
  -21.9844   -3.9793  -27.6000 C   0  0  0  0  0  0  0  0  0  0  0  0
  -22.6192   -3.4376  -29.8671 C   0  0  0  0  0  0  0  0  0  0  0  0
  -22.7812   -3.2287  -28.4975 C   0  0  0  0  0  0  0  0  0  0  0  0
  -21.9233   -4.1961  -31.8015 C   0  0  0  0  0  0  0  0  0  0  0  0
  -19.4454   -7.4256  -35.6498 C   0  0  0  0  0  0  0  0  0  0  0  0
  -18.9107   -3.7178  -26.2925 C   0  0  0  0  0  0  0  0  0  0  0  0
  -19.1082   -5.9984  -25.1048 C   0  0  0  0  0  0  0  0  0  0  0  0
  -16.9108   -5.1342  -25.8831 C   0  0  0  0  0  0  0  0  0  0  0  0
  -20.1390   -5.6662  -27.2536 C   0  0  0  0  0  0  0  0  0  0  0  0
  -19.9174   -8.7529  -35.1070 C   0  0  0  0  0  0  0  0  0  0  0  0
  -20.4102   -8.3970  -33.7077 C   0  0  0  0  0  0  0  0  0  0  0  0
  -23.1841   -3.0230  -25.6588 C   0  0  0  0  0  0  0  0  0  0  0  0
  -21.1498   -4.4704  -25.2612 C   0  0  2  0  0  0  0  0  0  0  0  0
  -20.8998   -6.9627  -33.8556 C   0  0  1  0  0  0  0  0  0  0  0  0
  -23.5371   -3.3771  -24.2160 C   0  0  1  0  0  0  0  0  0  0  0  0
  -21.0016   -3.5079  -24.0349 C   0  0  2  0  0  0  0  0  0  0  0  0
  -19.8109   -4.9136  -25.9395 C   0  0  0  0  0  0  0  0  0  0  0  0
  -24.3048   -4.6934  -24.0859 C   0  0  0  0  0  0  0  0  0  0  0  0
  -19.9241   -3.9250  -23.0254 C   0  0  0  0  0  0  0  0  0  0  0  0
  -20.8426   -6.1736  -32.5610 C   0  0  0  0  0  0  0  0  0  0  0  0
  -22.5479   -2.5825  -20.9406 N   0  0  0  0  0  0  0  0  0  0  0  0
  -22.8647   -3.2935  -32.0935 N   0  0  0  0  0  0  0  0  0  0  0  0
  -17.5554   -4.0010  -26.3585 N   0  0  0  0  0  0  0  0  0  0  0  0
  -17.7310   -6.0601  -25.2538 N   0  0  0  0  0  0  0  0  0  0  0  0
  -20.0239   -6.4306  -34.8683 N   0  0  0  0  0  0  0  0  0  0  0  0
  -22.3367   -3.3905  -23.3124 N   0  0  0  0  0  0  0  0  0  0  0  0
  -22.1050   -3.8463  -26.2130 N   0  0  3  0  0  0  0  0  0  0  0  0
  -18.7229   -7.2761  -36.6230 O   0  0  0  0  0  0  0  0  0  0  0  0
  -19.3487   -2.5994  -26.5618 O   0  0  0  0  0  0  0  0  0  0  0  0
  -19.7214   -6.8168  -24.4184 O   0  0  0  0  0  0  0  0  0  0  0  0
  -15.6918   -5.2881  -25.9760 O   0  0  0  0  0  0  0  0  0  0  0  0
  -23.3024   -2.8128  -30.8649 O   0  0  0  0  0  0  0  0  0  0  0  0
  -21.3119   -4.8381  -32.8058 O   0  0  0  0  0  0  0  0  0  0  0  0
  -23.7414   -2.3841  -28.0968 F   0  0  0  0  0  0  0  0  0  0  0  0
  -20.1981   -5.7872  -29.9465 H   0  0  0  0  0  0  0  0  0  0  0  0
  -20.6562   -6.5996  -27.0342 H   0  0  0  0  0  0  0  0  0  0  0  0
  -19.2211   -5.9083  -27.7858 H   0  0  0  0  0  0  0  0  0  0  0  0
  -20.7169   -9.1672  -35.7259 H   0  0  0  0  0  0  0  0  0  0  0  0
  -19.0698   -9.4443  -35.0747 H   0  0  0  0  0  0  0  0  0  0  0  0
  -21.2494   -9.0489  -33.4414 H   0  0  0  0  0  0  0  0  0  0  0  0
  -19.6306   -8.5200  -32.9531 H   0  0  0  0  0  0  0  0  0  0  0  0
  -24.0572   -3.0720  -26.3326 H   0  0  0  0  0  0  0  0  0  0  0  0
  -22.9046   -1.9590  -25.6112 H   0  0  0  0  0  0  0  0  0  0  0  0
  -21.6602   -5.3653  -24.8680 H   0  0  0  0  0  0  0  0  0  0  0  0
  -21.9340   -6.9454  -34.2500 H   0  0  0  0  0  0  0  0  0  0  0  0
  -24.1895   -2.5632  -23.8280 H   0  0  0  0  0  0  0  0  0  0  0  0
  -20.7436   -2.5228  -24.3760 H   0  0  0  0  0  0  0  0  0  0  0  0
  -23.6934   -5.5130  -24.4577 H   0  0  0  0  0  0  0  0  0  0  0  0
  -25.2242   -4.6407  -24.6653 H   0  0  0  0  0  0  0  0  0  0  0  0
  -24.5493   -4.8738  -23.0411 H   0  0  0  0  0  0  0  0  0  0  0  0
  -20.1426   -4.9216  -22.6494 H   0  0  0  0  0  0  0  0  0  0  0  0
  -19.9098   -3.2224  -22.1958 H   0  0  0  0  0  0  0  0  0  0  0  0
  -18.9512   -3.9288  -23.5110 H   0  0  0  0  0  0  0  0  0  0  0  0
  -19.8155   -6.1233  -32.1873 H   0  0  0  0  0  0  0  0  0  0  0  0
  -21.4783   -6.6368  -31.8005 H   0  0  0  0  0  0  0  0  0  0  0  0
  -16.9701   -3.3034  -26.8032 H   0  0  0  0  0  0  0  0  0  0  0  0
  -17.2707   -6.8752  -24.8573 H   0  0  0  0  0  0  0  0  0  0  0  0
  -19.8246   -5.4448  -34.9820 H   0  0  0  0  0  0  0  0  0  0  0  0
  1 25  3  0  0  0  0
  1 30  1  0  0  0  0
  2  3  2  0  0  0  0
  2  4  1  0  0  0  0
  3  6  1  0  0  0  0
  3  8  1  0  0  0  0
  4  5  2  0  0  0  0
  4 13  1  0  0  0  0
  5  7  1  0  0  0  0
  5 31  1  0  0  0  0
  6  7  2  0  0  0  0
  6 36  1  0  0  0  0
  7 38  1  0  0  0  0
  8 26  2  0  0  0  0
  8 37  1  0  0  0  0
  9 14  1  0  0  0  0
  9 29  1  0  0  0  0
  9 32  2  0  0  0  0
 10 21  1  0  0  0  0
 10 27  1  0  0  0  0
 10 33  2  0  0  0  0
 11 21  1  0  0  0  0
 11 28  1  0  0  0  0
 11 34  2  0  0  0  0
 12 27  1  0  0  0  0
 12 28  1  0  0  0  0
 12 35  2  0  0  0  0
 13 21  1  0  0  0  0
 14 15  1  0  0  0  0
 15 18  1  0  0  0  0
 16 19  1  0  0  0  0
 16 31  1  0  0  0  0
 17 20  1  0  0  0  0
 17 21  1  0  0  0  0
 17 31  1  0  0  0  0
 18 24  1  0  0  0  0
 18 29  1  0  0  0  0
 19 22  1  0  0  0  0
 19 30  1  0  0  0  0
 20 23  1  0  0  0  0
 20 30  1  0  0  0  0
 24 37  1  0  0  0  0
 26 36  1  0  0  0  0
  2 39  1  0  0  0  0
 13 40  1  0  0  0  0
 13 41  1  0  0  0  0
 14 42  1  0  0  0  0
 14 43  1  0  0  0  0
 15 44  1  0  0  0  0
 15 45  1  0  0  0  0
 16 46  1  0  0  0  0
 16 47  1  0  0  0  0
 17 48  1  0  0  0  0
 18 49  1  0  0  0  0
 19 50  1  0  0  0  0
 20 51  1  0  0  0  0
 22 52  1  0  0  0  0
 22 53  1  0  0  0  0
 22 54  1  0  0  0  0
 23 55  1  0  0  0  0
 23 56  1  0  0  0  0
 23 57  1  0  0  0  0
 24 58  1  0  0  0  0
 24 59  1  0  0  0  0
 27 60  1  0  0  0  0
 28 61  1  0  0  0  0
 29 62  1  0  0  0  0
M  END
> <SMILES>
C[C@@H]1CN2[C@H]([C@H](C)N1C#N)C1(Cc3cc4c(noc4c(c32)F)OC[C@@H]2CCC(=O)N2)C(=O)NC(=O)NC1=O

> <FORMATTED_ID>
H3D-005867

> <MOLFORMULA>
C24H24FN7O6

> <Exact Mass>
525.18

> <XLogP>
0.05

> <TPSA_NOPS>
170.2

> <s_m_source_file>
ligprep_h3d.sdf

> <i_m_source_file_index>
919

> <i_lp_mmshare_version>
55123

> <i_f3d_flags>
0

> <s_epik_input>
Tz1DMVtOSF1DKD1PKVtOSF1DKD1PKUMxMltDQEBIXTNOKFtDSDJdW0NAQEhdKFtDSDNdKU4oQyNOKVtDQEhdM1tDSDNdKWM0YyhbQ0gyXTIpW2NIXWM1YyhjNEYpb25jNU9bQ0gyXVtDQEBIXTZbQ0gyXVtDSDJdQyg9TylbTkhdNg==

> <s_epik_cmdline>
J2VwaWtfcHl0aG9uJywgJy1waHQnLCAnMC41JywgJy1waCcsICc3LjUnLCAnLXRuJywgJzgnLCAnLW1hJywgJzUwMCcsICctaW1hZScsICc8aW5maWxlLm1hZT4nLCAnLW9tYWUnLCAnPG91dGZpbGUubWFlPic=

> <r_lp_tautomer_probability>
1

> <r_epik_Ionization_Penalty>
0.218748

> <r_epik_Ionization_Penalty_Charging>
0

> <r_epik_Ionization_Penalty_Neutral>
0.218748

> <r_epik_State_Penalty>
0.208986

> <r_epik_Charging_Adjusted_Penalty>
0.208986

> <i_epik_Tot_Q>
0

> <i_epik_Tot_abs_Q>
0

> <s_lp_Force_Field>
S-OPLS

> <r_lp_Energy>
44.2626

> <b_lp_Chiralities_Consistent>
1

> <s_lp_Variant>
ligprep_h3d.sdf:919-1

> <ROCS_ShapeQuery>
_7L13

> <ROCS_TanimotoCombo>
0.779 

> <ROCS_ShapeTanimoto>
0.660 

> <ROCS_ColorTanimoto>
0.119 

> <ROCS_RefTversky>
0.823 

> <ROCS_RefColorTversky>
0.294 

> <ROCS_RefTverskyCombo>
1.117 

> <ROCS_FitTversky>
0.769 

> <ROCS_FitColorTversky>
0.166 

> <ROCS_FitTverskyCombo>
0.935 

> <ROCS_ColorScore>
-2.767

> <ROCS_Overlap>
1371.218

> <ROCS_Rank>
41                  

$$$$
ligprep_h3d.sdf:2409_1714
  -OEChem-08212117123D

 96100  0     1  0  0  0  0  0999 V2000
  -24.9577   -5.4788  -24.9578 C   0  0  0  0  0  0  0  0  0  0  0  0
  -23.2903   -3.9472  -24.1145 C   0  0  0  0  0  0  0  0  0  0  0  0
  -25.8138   -5.1201  -23.9167 C   0  0  0  0  0  0  0  0  0  0  0  0
  -24.1464   -3.5885  -23.0734 C   0  0  0  0  0  0  0  0  0  0  0  0
  -23.6959   -4.8924  -25.0568 C   0  0  0  0  0  0  0  0  0  0  0  0
  -25.4082   -4.1749  -22.9744 C   0  0  0  0  0  0  0  0  0  0  0  0
  -21.5722   -5.1023  -29.0490 C   0  0  0  0  0  0  0  0  0  0  0  0
  -17.7856   -5.9480  -25.9487 C   0  0  0  0  0  0  0  0  0  0  0  0
  -21.1117   -5.1903  -27.7957 C   0  0  0  0  0  0  0  0  0  0  0  0
  -16.6391   -5.3936  -25.5111 C   0  0  0  0  0  0  0  0  0  0  0  0
  -21.8411   -4.4758  -26.6992 C   0  0  0  0  0  0  0  0  0  0  0  0
  -23.6605   -2.4250  -28.3058 C   0  0  0  0  0  0  0  0  0  0  0  0
  -20.2484   -4.4151  -35.1711 C   0  0  0  0  0  0  0  0  0  0  0  0
  -18.5037   -8.4320  -35.8794 C   0  0  0  0  0  0  0  0  0  0  0  0
  -21.1934   -4.2929  -33.9631 C   0  0  0  0  0  0  0  0  0  0  0  0
  -19.0027   -8.0008  -34.4890 C   0  0  0  0  0  0  0  0  0  0  0  0
  -19.5279   -6.2331  -30.3027 C   0  0  0  0  0  0  0  0  0  0  0  0
  -22.7247   -4.3284  -31.0282 C   0  0  0  0  0  0  0  0  0  0  0  0
  -20.9769   -5.7530  -30.2738 C   0  0  2  0  0  0  0  0  0  0  0  0
  -22.7576   -4.2637  -29.4851 C   0  0  2  0  0  0  0  0  0  0  0  0
  -19.8969   -5.8718  -35.4570 C   0  0  1  0  0  0  0  0  0  0  0  0
  -19.5550   -5.9598  -32.8704 C   0  0  1  0  0  0  0  0  0  0  0  0
  -19.2953   -6.1869  -36.8536 C   0  0  1  0  0  0  0  0  0  0  0  0
  -19.2160   -7.7252  -37.0353 C   0  0  2  0  0  0  0  0  0  0  0  0
  -19.2121   -6.8852  -31.6642 C   0  0  2  0  0  0  0  0  0  0  0  0
  -19.0287   -6.4629  -34.2931 C   0  0  1  0  0  0  0  0  0  0  0  0
  -21.0255   -5.3680  -32.8320 C   0  0  1  0  0  0  0  0  0  0  0  0
  -21.2611   -4.7065  -31.3879 C   0  0  1  0  0  0  0  0  0  0  0  0
  -15.3598   -6.1321  -25.2369 C   0  0  0  0  0  0  0  0  0  0  0  0
  -16.5615   -3.9109  -25.2583 C   0  0  0  0  0  0  0  0  0  0  0  0
  -23.3904   -0.9987  -27.9335 C   0  0  0  0  0  0  0  0  0  0  0  0
  -20.0928   -5.5527  -38.0008 C   0  0  0  0  0  0  0  0  0  0  0  0
  -17.5463   -5.9632  -34.3734 C   0  0  0  0  0  0  0  0  0  0  0  0
  -22.0835   -6.4854  -33.0868 C   0  0  0  0  0  0  0  0  0  0  0  0
  -20.3839   -3.4188  -31.1829 C   0  0  0  0  0  0  0  0  0  0  0  0
  -19.0957   -5.2693  -26.2418 C   0  0  0  0  0  0  0  0  0  0  0  0
  -19.8353   -5.9044  -27.4275 C   0  0  0  0  0  0  0  0  0  0  0  0
  -22.8269   -5.2565  -26.1132 N   0  0  0  0  0  0  0  0  0  0  0  0
  -21.4908   -3.3429  -26.3854 O   0  0  0  0  0  0  0  0  0  0  0  0
  -24.6625   -3.0425  -27.9713 O   0  0  0  0  0  0  0  0  0  0  0  0
  -20.5245   -8.2932  -37.1327 O   0  0  0  0  0  0  0  0  0  0  0  0
  -19.9231   -8.1169  -31.7517 O   0  0  0  0  0  0  0  0  0  0  0  0
  -22.6300   -2.9143  -29.0619 O   0  0  0  0  0  0  0  0  0  0  0  0
  -26.2306   -3.8294  -21.9751 F   0  0  0  0  0  0  0  0  0  0  0  0
  -25.2844   -6.2168  -25.6861 H   0  0  0  0  0  0  0  0  0  0  0  0
  -22.3084   -3.4855  -24.1804 H   0  0  0  0  0  0  0  0  0  0  0  0
  -26.7958   -5.5769  -23.8389 H   0  0  0  0  0  0  0  0  0  0  0  0
  -23.8314   -2.8517  -22.3404 H   0  0  0  0  0  0  0  0  0  0  0  0
  -17.7942   -7.0225  -26.1305 H   0  0  0  0  0  0  0  0  0  0  0  0
  -20.7493   -3.9443  -36.0230 H   0  0  0  0  0  0  0  0  0  0  0  0
  -19.3418   -3.8264  -34.9933 H   0  0  0  0  0  0  0  0  0  0  0  0
  -17.4250   -8.2579  -35.9561 H   0  0  0  0  0  0  0  0  0  0  0  0
  -18.6460   -9.5165  -35.9684 H   0  0  0  0  0  0  0  0  0  0  0  0
  -21.0759   -3.2745  -33.5866 H   0  0  0  0  0  0  0  0  0  0  0  0
  -22.2265   -4.3189  -34.3350 H   0  0  0  0  0  0  0  0  0  0  0  0
  -20.0075   -8.4128  -34.3415 H   0  0  0  0  0  0  0  0  0  0  0  0
  -18.3521   -8.4756  -33.7455 H   0  0  0  0  0  0  0  0  0  0  0  0
  -18.8353   -5.4053  -30.1145 H   0  0  0  0  0  0  0  0  0  0  0  0
  -19.3728   -6.9687  -29.5040 H   0  0  0  0  0  0  0  0  0  0  0  0
  -23.4245   -5.1084  -31.3447 H   0  0  0  0  0  0  0  0  0  0  0  0
  -23.0369   -3.3896  -31.4981 H   0  0  0  0  0  0  0  0  0  0  0  0
  -21.6049   -6.6413  -30.4166 H   0  0  0  0  0  0  0  0  0  0  0  0
  -23.7004   -4.6676  -29.1054 H   0  0  0  0  0  0  0  0  0  0  0  0
  -20.8598   -6.3911  -35.4735 H   0  0  0  0  0  0  0  0  0  0  0  0
  -18.9292   -5.0802  -32.6808 H   0  0  0  0  0  0  0  0  0  0  0  0
  -18.2828   -5.7755  -36.9230 H   0  0  0  0  0  0  0  0  0  0  0  0
  -18.6922   -7.9648  -37.9685 H   0  0  0  0  0  0  0  0  0  0  0  0
  -18.1441   -7.1297  -31.6848 H   0  0  0  0  0  0  0  0  0  0  0  0
  -14.7436   -6.1627  -26.1416 H   0  0  0  0  0  0  0  0  0  0  0  0
  -14.7552   -5.6870  -24.4450 H   0  0  0  0  0  0  0  0  0  0  0  0
  -15.5787   -7.1623  -24.9365 H   0  0  0  0  0  0  0  0  0  0  0  0
  -16.8404   -3.6881  -24.2231 H   0  0  0  0  0  0  0  0  0  0  0  0
  -15.5559   -3.5102  -25.4241 H   0  0  0  0  0  0  0  0  0  0  0  0
  -17.2455   -3.3765  -25.9258 H   0  0  0  0  0  0  0  0  0  0  0  0
  -22.8452   -0.9592  -26.9873 H   0  0  0  0  0  0  0  0  0  0  0  0
  -24.3327   -0.4500  -27.8588 H   0  0  0  0  0  0  0  0  0  0  0  0
  -22.7767   -0.5314  -28.7092 H   0  0  0  0  0  0  0  0  0  0  0  0
  -21.1128   -5.9262  -37.9824 H   0  0  0  0  0  0  0  0  0  0  0  0
  -19.6299   -5.8106  -38.9492 H   0  0  0  0  0  0  0  0  0  0  0  0
  -20.1001   -4.4728  -37.8828 H   0  0  0  0  0  0  0  0  0  0  0  0
  -17.5502   -4.8955  -34.2387 H   0  0  0  0  0  0  0  0  0  0  0  0
  -17.1606   -6.2288  -35.3423 H   0  0  0  0  0  0  0  0  0  0  0  0
  -16.9913   -6.4493  -33.5900 H   0  0  0  0  0  0  0  0  0  0  0  0
  -21.9781   -7.2310  -32.3151 H   0  0  0  0  0  0  0  0  0  0  0  0
  -21.8943   -6.9127  -34.0584 H   0  0  0  0  0  0  0  0  0  0  0  0
  -23.0629   -6.0358  -33.0517 H   0  0  0  0  0  0  0  0  0  0  0  0
  -19.3697   -3.6737  -31.4302 H   0  0  0  0  0  0  0  0  0  0  0  0
  -20.4722   -3.1262  -30.1528 H   0  0  0  0  0  0  0  0  0  0  0  0
  -20.7657   -2.6578  -31.8387 H   0  0  0  0  0  0  0  0  0  0  0  0
  -19.7525   -5.2307  -25.3686 H   0  0  0  0  0  0  0  0  0  0  0  0
  -18.8765   -4.2235  -26.4924 H   0  0  0  0  0  0  0  0  0  0  0  0
  -20.0419   -6.9592  -27.2025 H   0  0  0  0  0  0  0  0  0  0  0  0
  -19.1671   -5.9119  -28.2980 H   0  0  0  0  0  0  0  0  0  0  0  0
  -22.9391   -6.2105  -26.4501 H   0  0  0  0  0  0  0  0  0  0  0  0
  -20.3984   -9.2377  -37.3053 H   0  0  0  0  0  0  0  0  0  0  0  0
  -19.6133   -8.6679  -31.0161 H   0  0  0  0  0  0  0  0  0  0  0  0
  1  3  1  0  0  0  0
  1  5  2  0  0  0  0
  2  4  2  0  0  0  0
  2  5  1  0  0  0  0
  3  6  2  0  0  0  0
  4  6  1  0  0  0  0
  5 38  1  0  0  0  0
  6 44  1  0  0  0  0
  7  9  2  0  0  0  0
  7 19  1  0  0  0  0
  7 20  1  0  0  0  0
  8 10  2  0  0  0  0
  8 36  1  0  0  0  0
  9 11  1  0  0  0  0
  9 37  1  0  0  0  0
 10 29  1  0  0  0  0
 10 30  1  0  0  0  0
 11 38  1  0  0  0  0
 11 39  2  0  0  0  0
 12 31  1  0  0  0  0
 12 40  2  0  0  0  0
 12 43  1  0  0  0  0
 13 15  1  0  0  0  0
 13 21  1  0  0  0  0
 14 16  1  0  0  0  0
 14 24  1  0  0  0  0
 15 27  1  0  0  0  0
 16 26  1  0  0  0  0
 17 19  1  0  0  0  0
 17 25  1  0  0  0  0
 18 20  1  0  0  0  0
 18 28  1  0  0  0  0
 19 28  1  0  0  0  0
 20 43  1  0  0  0  0
 21 23  1  0  0  0  0
 21 26  1  0  0  0  0
 22 25  1  0  0  0  0
 22 26  1  0  0  0  0
 22 27  1  0  0  0  0
 23 24  1  0  0  0  0
 23 32  1  0  0  0  0
 24 41  1  0  0  0  0
 25 42  1  0  0  0  0
 26 33  1  0  0  0  0
 27 28  1  0  0  0  0
 27 34  1  0  0  0  0
 28 35  1  0  0  0  0
 36 37  1  0  0  0  0
  1 45  1  0  0  0  0
  2 46  1  0  0  0  0
  3 47  1  0  0  0  0
  4 48  1  0  0  0  0
  8 49  1  0  0  0  0
 13 50  1  0  0  0  0
 13 51  1  0  0  0  0
 14 52  1  0  0  0  0
 14 53  1  0  0  0  0
 15 54  1  0  0  0  0
 15 55  1  0  0  0  0
 16 56  1  0  0  0  0
 16 57  1  0  0  0  0
 17 58  1  0  0  0  0
 17 59  1  0  0  0  0
 18 60  1  0  0  0  0
 18 61  1  0  0  0  0
 19 62  1  0  0  0  0
 20 63  1  0  0  0  0
 21 64  1  0  0  0  0
 22 65  1  0  0  0  0
 23 66  1  0  0  0  0
 24 67  1  0  0  0  0
 25 68  1  0  0  0  0
 29 69  1  0  0  0  0
 29 70  1  0  0  0  0
 29 71  1  0  0  0  0
 30 72  1  0  0  0  0
 30 73  1  0  0  0  0
 30 74  1  0  0  0  0
 31 75  1  0  0  0  0
 31 76  1  0  0  0  0
 31 77  1  0  0  0  0
 32 78  1  0  0  0  0
 32 79  1  0  0  0  0
 32 80  1  0  0  0  0
 33 81  1  0  0  0  0
 33 82  1  0  0  0  0
 33 83  1  0  0  0  0
 34 84  1  0  0  0  0
 34 85  1  0  0  0  0
 34 86  1  0  0  0  0
 35 87  1  0  0  0  0
 35 88  1  0  0  0  0
 35 89  1  0  0  0  0
 36 90  1  0  0  0  0
 36 91  1  0  0  0  0
 37 92  1  0  0  0  0
 37 93  1  0  0  0  0
 38 94  1  0  0  0  0
 41 95  1  0  0  0  0
 42 96  1  0  0  0  0
M  END
> <SMILES>
C[C@@H]1[C@H](O)CC[C@@]2(C)[C@H]1CC[C@@]1(C)[C@H]2[C@H](O)C[C@H]2/C(=C(\CCC=C(C)C)C(=O)Nc3ccc(cc3)F)[C@H](C[C@@]21C)OC(=O)C

> <FORMATTED_ID>
H3D-005614

> <MOLFORMULA>
C37H52FNO5

> <Exact Mass>
609.38

> <XLogP>
7.03

> <TPSA_NOPS>
95.9

> <s_m_source_file>
ligprep_h3d.sdf

> <i_m_source_file_index>
2409

> <i_lp_mmshare_version>
55123

> <i_f3d_flags>
0

> <s_epik_input>
W0NIMl0xW0NIMl1bQ0BASF0oW09IXSlbQ0BASF0oW0NIM10pW0NAQEhdKFtDQF0xMltDSDNdKVtDSDJdW0NIMl1bQ0BAXTMoW0NIM10pW0NASF0yW0NASF0oW09IXSlbQ0gyXVtDQEBIXTRbQ0BdMyhbQ0gzXSlbQ0gyXVtDQEhdKE9DKD1PKVtDSDNdKUNcND1DKFxbQ0gyXVtDSDJdW0NIXT1DKFtDSDNdKVtDSDNdKUMoPU8pW05IXWM1W2NIXVtjSF1jKEYpW2NIXVtjSF01

> <s_epik_cmdline>
J2VwaWtfcHl0aG9uJywgJy1waHQnLCAnMC41JywgJy1waCcsICc3LjUnLCAnLXRuJywgJzgnLCAnLW1hJywgJzUwMCcsICctaW1hZScsICc8aW5maWxlLm1hZT4nLCAnLW9tYWUnLCAnPG91dGZpbGUubWFlPic=

> <r_lp_tautomer_probability>
1

> <r_epik_Ionization_Penalty>
0.000169362

> <r_epik_Ionization_Penalty_Charging>
0

> <r_epik_Ionization_Penalty_Neutral>
0.000169362

> <r_epik_State_Penalty>
-0

> <r_epik_Charging_Adjusted_Penalty>
0

> <i_epik_Tot_Q>
0

> <i_epik_Tot_abs_Q>
0

> <s_epik_Chemistry_Notes>
This compound has an ester and may undergo hydrolysis at high or low pH.

> <s_lp_Force_Field>
S-OPLS

> <r_lp_Energy>
88.43

> <b_lp_Chiralities_Consistent>
1

> <s_lp_Variant>
ligprep_h3d.sdf:2409-1

> <ROCS_ShapeQuery>
_7L13

> <ROCS_TanimotoCombo>
0.719 

> <ROCS_ShapeTanimoto>
0.620 

> <ROCS_ColorTanimoto>
0.100 

> <ROCS_RefTversky>
0.823 

> <ROCS_RefColorTversky>
0.225 

> <ROCS_RefTverskyCombo>
1.048 

> <ROCS_FitTversky>
0.716 

> <ROCS_FitColorTversky>
0.151 

> <ROCS_FitTverskyCombo>
0.867 

> <ROCS_ColorScore>
-2.084

> <ROCS_Overlap>
1377.362

> <ROCS_Rank>
42                  

$$$$
ligprep_h3d.sdf:976_1990
  -OEChem-08212117123D

 63 68  0     1  0  0  0  0  0999 V2000
  -20.9112   -5.0773  -29.5240 C   0  0  0  0  0  0  0  0  0  0  0  0
  -21.7136   -4.3433  -30.3997 C   0  0  0  0  0  0  0  0  0  0  0  0
  -21.0361   -4.8501  -28.1317 C   0  0  0  0  0  0  0  0  0  0  0  0
  -21.9719   -3.9370  -27.5915 C   0  0  0  0  0  0  0  0  0  0  0  0
  -22.5982   -3.4305  -29.8691 C   0  0  0  0  0  0  0  0  0  0  0  0
  -22.7580   -3.1935  -28.5036 C   0  0  0  0  0  0  0  0  0  0  0  0
  -21.9115   -4.2340  -31.7887 C   0  0  0  0  0  0  0  0  0  0  0  0
  -19.4822   -7.6080  -35.6056 C   0  0  0  0  0  0  0  0  0  0  0  0
  -18.9158   -3.7187  -26.2049 C   0  0  0  0  0  0  0  0  0  0  0  0
  -19.1736   -6.0042  -25.0403 C   0  0  0  0  0  0  0  0  0  0  0  0
  -16.9433   -5.1531  -25.7328 C   0  0  0  0  0  0  0  0  0  0  0  0
  -20.1408   -5.6442  -27.2185 C   0  0  0  0  0  0  0  0  0  0  0  0
  -19.9584   -8.8995  -34.9847 C   0  0  0  0  0  0  0  0  0  0  0  0
  -20.4101   -8.4733  -33.5937 C   0  0  0  0  0  0  0  0  0  0  0  0
  -23.0820   -2.8458  -25.6524 C   0  0  0  0  0  0  0  0  0  0  0  0
  -21.1856   -4.4588  -25.2476 C   0  0  2  0  0  0  0  0  0  0  0  0
  -20.8985   -7.0435  -33.7951 C   0  0  1  0  0  0  0  0  0  0  0  0
  -23.4438   -3.1813  -24.2028 C   0  0  1  0  0  0  0  0  0  0  0  0
  -21.0569   -3.5273  -24.0073 C   0  0  2  0  0  0  0  0  0  0  0  0
  -19.8379   -4.9080  -25.8895 C   0  0  0  0  0  0  0  0  0  0  0  0
  -24.3888   -4.3766  -24.0939 C   0  0  0  0  0  0  0  0  0  0  0  0
  -20.0878   -3.9827  -22.9229 C   0  0  0  0  0  0  0  0  0  0  0  0
  -19.9399   -5.1637  -35.2226 C   0  0  0  0  0  0  0  0  0  0  0  0
  -20.8389   -6.2297  -32.5115 C   0  0  0  0  0  0  0  0  0  0  0  0
  -22.8422   -3.3260  -32.0981 N   0  0  0  0  0  0  0  0  0  0  0  0
  -17.5614   -4.0121  -26.2239 N   0  0  0  0  0  0  0  0  0  0  0  0
  -17.7928   -6.0757  -25.1390 N   0  0  0  0  0  0  0  0  0  0  0  0
  -22.0912   -3.7760  -26.2089 N   0  0  3  0  0  0  0  0  0  0  0  0
  -20.0357   -6.5644  -34.8613 N   0  0  0  0  0  0  0  0  0  0  0  0
  -18.7821   -7.5361  -36.6048 O   0  0  0  0  0  0  0  0  0  0  0  0
  -19.3345   -2.5958  -26.4861 O   0  0  0  0  0  0  0  0  0  0  0  0
  -19.8180   -6.8241  -24.3847 O   0  0  0  0  0  0  0  0  0  0  0  0
  -15.7231   -5.3166  -25.7835 O   0  0  0  0  0  0  0  0  0  0  0  0
  -23.2740   -2.8168  -30.8789 O   0  0  0  0  0  0  0  0  0  0  0  0
  -22.3252   -3.4084  -23.3509 O   0  0  0  0  0  0  0  0  0  0  0  0
  -21.3020   -4.8966  -32.7807 O   0  0  0  0  0  0  0  0  0  0  0  0
  -23.5766   -2.2016  -28.1338 F   0  0  0  0  0  0  0  0  0  0  0  0
  -20.1972   -5.8015  -29.9061 H   0  0  0  0  0  0  0  0  0  0  0  0
  -20.6366   -6.6059  -27.0271 H   0  0  0  0  0  0  0  0  0  0  0  0
  -19.1999   -5.8736  -27.7373 H   0  0  0  0  0  0  0  0  0  0  0  0
  -20.7790   -9.3322  -35.5632 H   0  0  0  0  0  0  0  0  0  0  0  0
  -19.1199   -9.6020  -34.9415 H   0  0  0  0  0  0  0  0  0  0  0  0
  -21.2450   -9.1064  -33.2721 H   0  0  0  0  0  0  0  0  0  0  0  0
  -19.6106   -8.5654  -32.8548 H   0  0  0  0  0  0  0  0  0  0  0  0
  -23.9905   -2.9153  -26.2860 H   0  0  0  0  0  0  0  0  0  0  0  0
  -22.8068   -1.7802  -25.6858 H   0  0  0  0  0  0  0  0  0  0  0  0
  -21.7337   -5.3585  -24.9274 H   0  0  0  0  0  0  0  0  0  0  0  0
  -21.9480   -7.0642  -34.1664 H   0  0  0  0  0  0  0  0  0  0  0  0
  -24.0223   -2.2958  -23.7636 H   0  0  0  0  0  0  0  0  0  0  0  0
  -20.7460   -2.5110  -24.3116 H   0  0  0  0  0  0  0  0  0  0  0  0
  -23.9085   -5.2692  -24.4948 H   0  0  0  0  0  0  0  0  0  0  0  0
  -25.3015   -4.1827  -24.6574 H   0  0  0  0  0  0  0  0  0  0  0  0
  -24.6481   -4.5529  -23.0499 H   0  0  0  0  0  0  0  0  0  0  0  0
  -20.3506   -4.9852  -22.5851 H   0  0  0  0  0  0  0  0  0  0  0  0
  -20.1313   -3.3007  -22.0737 H   0  0  0  0  0  0  0  0  0  0  0  0
  -19.0704   -3.9965  -23.3140 H   0  0  0  0  0  0  0  0  0  0  0  0
  -20.7956   -4.8887  -35.8568 H   0  0  0  0  0  0  0  0  0  0  0  0
  -19.9469   -4.5487  -34.3106 H   0  0  0  0  0  0  0  0  0  0  0  0
  -19.0042   -4.9907  -35.7744 H   0  0  0  0  0  0  0  0  0  0  0  0
  -19.8120   -6.1774  -32.1376 H   0  0  0  0  0  0  0  0  0  0  0  0
  -21.4776   -6.6764  -31.7436 H   0  0  0  0  0  0  0  0  0  0  0  0
  -16.9542   -3.3150  -26.6437 H   0  0  0  0  0  0  0  0  0  0  0  0
  -17.3483   -6.8655  -24.6803 H   0  0  0  0  0  0  0  0  0  0  0  0
  1  2  2  0  0  0  0
  1  3  1  0  0  0  0
  2  5  1  0  0  0  0
  2  7  1  0  0  0  0
  3  4  2  0  0  0  0
  3 12  1  0  0  0  0
  4  6  1  0  0  0  0
  4 28  1  0  0  0  0
  5  6  2  0  0  0  0
  5 34  1  0  0  0  0
  6 37  1  0  0  0  0
  7 25  2  0  0  0  0
  7 36  1  0  0  0  0
  8 13  1  0  0  0  0
  8 29  1  0  0  0  0
  8 30  2  0  0  0  0
  9 20  1  0  0  0  0
  9 26  1  0  0  0  0
  9 31  2  0  0  0  0
 10 20  1  0  0  0  0
 10 27  1  0  0  0  0
 10 32  2  0  0  0  0
 11 26  1  0  0  0  0
 11 27  1  0  0  0  0
 11 33  2  0  0  0  0
 12 20  1  0  0  0  0
 13 14  1  0  0  0  0
 14 17  1  0  0  0  0
 15 18  1  0  0  0  0
 15 28  1  0  0  0  0
 16 19  1  0  0  0  0
 16 20  1  0  0  0  0
 16 28  1  0  0  0  0
 17 24  1  0  0  0  0
 17 29  1  0  0  0  0
 18 21  1  0  0  0  0
 18 35  1  0  0  0  0
 19 22  1  0  0  0  0
 19 35  1  0  0  0  0
 23 29  1  0  0  0  0
 24 36  1  0  0  0  0
 25 34  1  0  0  0  0
  1 38  1  0  0  0  0
 12 39  1  0  0  0  0
 12 40  1  0  0  0  0
 13 41  1  0  0  0  0
 13 42  1  0  0  0  0
 14 43  1  0  0  0  0
 14 44  1  0  0  0  0
 15 45  1  0  0  0  0
 15 46  1  0  0  0  0
 16 47  1  0  0  0  0
 17 48  1  0  0  0  0
 18 49  1  0  0  0  0
 19 50  1  0  0  0  0
 21 51  1  0  0  0  0
 21 52  1  0  0  0  0
 21 53  1  0  0  0  0
 22 54  1  0  0  0  0
 22 55  1  0  0  0  0
 22 56  1  0  0  0  0
 23 57  1  0  0  0  0
 23 58  1  0  0  0  0
 23 59  1  0  0  0  0
 24 60  1  0  0  0  0
 24 61  1  0  0  0  0
 26 62  1  0  0  0  0
 27 63  1  0  0  0  0
M  END
> <SMILES>
C[C@@H]1CN2[C@H]([C@H](C)O1)C1(Cc3cc4c(noc4c(c32)F)OC[C@@H]2CCC(=O)N2C)C(=O)NC(=O)NC1=O

> <FORMATTED_ID>
H3D-006044

> <MOLFORMULA>
C24H26FN5O7

> <Exact Mass>
515.18

> <XLogP>
0.83

> <TPSA_NOPS>
143.6

> <s_m_source_file>
ligprep_h3d.sdf

> <i_m_source_file_index>
976

> <i_lp_mmshare_version>
55123

> <i_f3d_flags>
0

> <s_epik_input>
Tz1DMVtOSF1DKD1PKVtOSF1DKD1PKUMxMltDQEBIXTNOKFtDSDJdW0NAQEhdKFtDSDNdKU9bQ0BIXTNbQ0gzXSljNGMoW0NIMl0yKVtjSF1jNWMoYzRGKW9uYzVPW0NIMl1bQ0BASF02W0NIMl1bQ0gyXUMoPU8pTjZbQ0gzXQ==

> <s_epik_cmdline>
J2VwaWtfcHl0aG9uJywgJy1waHQnLCAnMC41JywgJy1waCcsICc3LjUnLCAnLXRuJywgJzgnLCAnLW1hJywgJzUwMCcsICctaW1hZScsICc8aW5maWxlLm1hZT4nLCAnLW9tYWUnLCAnPG91dGZpbGUubWFlPic=

> <r_lp_tautomer_probability>
1

> <r_epik_Ionization_Penalty>
0.369127

> <r_epik_Ionization_Penalty_Charging>
0

> <r_epik_Ionization_Penalty_Neutral>
0.369127

> <r_epik_State_Penalty>
0.366447

> <r_epik_Charging_Adjusted_Penalty>
0.366447

> <i_epik_Tot_Q>
0

> <i_epik_Tot_abs_Q>
0

> <s_lp_Force_Field>
S-OPLS

> <r_lp_Energy>
37.3013

> <b_lp_Chiralities_Consistent>
1

> <s_lp_Variant>
ligprep_h3d.sdf:976-1

> <ROCS_ShapeQuery>
_7L13

> <ROCS_TanimotoCombo>
0.802 

> <ROCS_ShapeTanimoto>
0.672 

> <ROCS_ColorTanimoto>
0.130 

> <ROCS_RefTversky>
0.822 

> <ROCS_RefColorTversky>
0.297 

> <ROCS_RefTverskyCombo>
1.119 

> <ROCS_FitTversky>
0.787 

> <ROCS_FitColorTversky>
0.187 

> <ROCS_FitTverskyCombo>
0.974 

> <ROCS_ColorScore>
-2.758

> <ROCS_Overlap>
1369.044

> <ROCS_Rank>
43                  

$$$$
ligprep_h3d.sdf:5138_550
  -OEChem-08212117123D

 68 73  0     0  0  0  0  0  0999 V2000
  -19.7591   -6.6254  -35.6974 C   0  0  0  0  0  0  0  0  0  0  0  0
  -20.4203   -7.3610  -34.7139 C   0  0  0  0  0  0  0  0  0  0  0  0
  -19.0810   -5.4554  -35.3555 C   0  0  0  0  0  0  0  0  0  0  0  0
  -20.4036   -6.9266  -33.3886 C   0  0  0  0  0  0  0  0  0  0  0  0
  -19.0642   -5.0209  -34.0302 C   0  0  0  0  0  0  0  0  0  0  0  0
  -23.2085   -4.0806  -28.6337 C   0  0  0  0  0  0  0  0  0  0  0  0
  -20.4733   -4.6061  -29.0501 C   0  0  0  0  0  0  0  0  0  0  0  0
  -15.0093   -6.1232  -25.9030 C   0  0  0  0  0  0  0  0  0  0  0  0
  -14.5720   -5.0457  -25.1782 C   0  0  0  0  0  0  0  0  0  0  0  0
  -22.3503   -4.2937  -27.5618 C   0  0  0  0  0  0  0  0  0  0  0  0
  -19.7255   -5.7565  -33.0466 C   0  0  0  0  0  0  0  0  0  0  0  0
  -20.9887   -4.5539  -27.7600 C   0  0  0  0  0  0  0  0  0  0  0  0
  -22.6882   -4.1247  -29.9264 C   0  0  0  0  0  0  0  0  0  0  0  0
  -21.3289   -4.3871  -30.1334 C   0  0  0  0  0  0  0  0  0  0  0  0
  -16.7237   -4.7518  -25.5886 C   0  0  0  0  0  0  0  0  0  0  0  0
  -18.1265   -4.2675  -25.6918 C   0  0  0  0  0  0  0  0  0  0  0  0
  -18.5007   -6.3127  -26.9465 C   0  0  0  0  0  0  0  0  0  0  0  0
  -17.2244   -6.7279  -26.8378 C   0  0  0  0  0  0  0  0  0  0  0  0
  -18.9951   -5.0510  -26.3675 C   0  0  0  0  0  0  0  0  0  0  0  0
  -23.4478   -3.0960  -25.6121 C   0  0  0  0  0  0  0  0  0  0  0  0
  -23.5021   -5.6049  -25.7587 C   0  0  0  0  0  0  0  0  0  0  0  0
  -23.8816   -3.2172  -24.1487 C   0  0  0  0  0  0  0  0  0  0  0  0
  -23.9693   -5.6354  -24.2988 C   0  0  0  0  0  0  0  0  0  0  0  0
  -21.2471   -4.4068  -25.4710 C   0  0  0  0  0  0  0  0  0  0  0  0
  -22.6810   -4.3419  -26.0901 C   0  0  0  0  0  0  0  0  0  0  0  0
  -23.6583   -2.5524  -31.4240 C   0  0  0  0  0  0  0  0  0  0  0  0
  -19.7072   -5.2884  -31.6211 C   0  0  0  0  0  0  0  0  0  0  0  0
  -25.1785   -4.4844  -22.5634 C   0  0  0  0  0  0  0  0  0  0  0  0
  -26.3753   -5.4059  -22.4547 C   0  0  0  0  0  0  0  0  0  0  0  0
  -16.3512   -5.9187  -26.1469 N   0  0  0  0  0  0  0  0  0  0  0  0
  -15.6529   -4.2143  -24.9984 N   0  3  0  0  0  0  0  0  0  0  0  0
  -20.3027   -4.7408  -26.5442 N   0  0  0  0  0  0  0  0  0  0  0  0
  -24.7065   -4.4153  -23.9461 N   0  0  0  0  0  0  0  0  0  0  0  0
  -23.5155   -3.9020  -30.9866 O   0  0  0  0  0  0  0  0  0  0  0  0
  -20.8230   -4.4293  -31.3991 O   0  0  0  0  0  0  0  0  0  0  0  0
  -27.2210   -5.1901  -23.4931 F   0  0  0  0  0  0  0  0  0  0  0  0
  -27.0668   -5.1049  -21.3258 F   0  0  0  0  0  0  0  0  0  0  0  0
  -19.7711   -6.9646  -36.7291 H   0  0  0  0  0  0  0  0  0  0  0  0
  -20.9475   -8.2727  -34.9798 H   0  0  0  0  0  0  0  0  0  0  0  0
  -18.5651   -4.8830  -36.1208 H   0  0  0  0  0  0  0  0  0  0  0  0
  -20.9217   -7.5060  -32.6290 H   0  0  0  0  0  0  0  0  0  0  0  0
  -18.5334   -4.1081  -33.7731 H   0  0  0  0  0  0  0  0  0  0  0  0
  -24.2615   -3.8731  -28.4714 H   0  0  0  0  0  0  0  0  0  0  0  0
  -19.4242   -4.8189  -29.2312 H   0  0  0  0  0  0  0  0  0  0  0  0
  -14.5464   -7.0147  -26.2820 H   0  0  0  0  0  0  0  0  0  0  0  0
  -13.6362   -4.7388  -24.7547 H   0  0  0  0  0  0  0  0  0  0  0  0
  -18.4040   -3.3257  -25.2350 H   0  0  0  0  0  0  0  0  0  0  0  0
  -19.2129   -6.9304  -27.4864 H   0  0  0  0  0  0  0  0  0  0  0  0
  -16.8514   -7.6522  -27.2593 H   0  0  0  0  0  0  0  0  0  0  0  0
  -24.3443   -2.9507  -26.2279 H   0  0  0  0  0  0  0  0  0  0  0  0
  -22.8401   -2.1924  -25.7367 H   0  0  0  0  0  0  0  0  0  0  0  0
  -22.9216   -6.5129  -25.9766 H   0  0  0  0  0  0  0  0  0  0  0  0
  -24.3898   -5.6586  -26.4068 H   0  0  0  0  0  0  0  0  0  0  0  0
  -23.0053   -3.2304  -23.4929 H   0  0  0  0  0  0  0  0  0  0  0  0
  -24.4622   -2.3247  -23.8942 H   0  0  0  0  0  0  0  0  0  0  0  0
  -24.6226   -6.5103  -24.1726 H   0  0  0  0  0  0  0  0  0  0  0  0
  -23.1084   -5.7834  -23.6303 H   0  0  0  0  0  0  0  0  0  0  0  0
  -20.9606   -3.4653  -24.9894 H   0  0  0  0  0  0  0  0  0  0  0  0
  -21.1876   -5.1914  -24.7051 H   0  0  0  0  0  0  0  0  0  0  0  0
  -24.3439   -2.5147  -32.2740 H   0  0  0  0  0  0  0  0  0  0  0  0
  -22.6813   -2.1566  -31.7124 H   0  0  0  0  0  0  0  0  0  0  0  0
  -24.0641   -1.9543  -30.6047 H   0  0  0  0  0  0  0  0  0  0  0  0
  -19.7659   -6.1359  -30.9297 H   0  0  0  0  0  0  0  0  0  0  0  0
  -18.7836   -4.7409  -31.4046 H   0  0  0  0  0  0  0  0  0  0  0  0
  -25.4577   -3.4801  -22.2286 H   0  0  0  0  0  0  0  0  0  0  0  0
  -24.3749   -4.8368  -21.9086 H   0  0  0  0  0  0  0  0  0  0  0  0
  -26.1047   -6.4656  -22.4270 H   0  0  0  0  0  0  0  0  0  0  0  0
  -15.6389   -3.3308  -24.4963 H   0  0  0  0  0  0  0  0  0  0  0  0
  1  2  2  0  0  0  0
  1  3  1  0  0  0  0
  2  4  1  0  0  0  0
  3  5  2  0  0  0  0
  4 11  2  0  0  0  0
  5 11  1  0  0  0  0
  6 10  1  0  0  0  0
  6 13  2  0  0  0  0
  7 12  1  0  0  0  0
  7 14  2  0  0  0  0
  8  9  2  0  0  0  0
  8 30  1  0  0  0  0
  9 31  1  0  0  0  0
 10 12  2  0  0  0  0
 10 25  1  0  0  0  0
 11 27  1  0  0  0  0
 12 32  1  0  0  0  0
 13 14  1  0  0  0  0
 13 34  1  0  0  0  0
 14 35  1  0  0  0  0
 15 16  1  0  0  0  0
 15 30  1  0  0  0  0
 15 31  2  0  0  0  0
 16 19  2  0  0  0  0
 17 18  2  0  0  0  0
 17 19  1  0  0  0  0
 18 30  1  0  0  0  0
 19 32  1  0  0  0  0
 20 22  1  0  0  0  0
 20 25  1  0  0  0  0
 21 23  1  0  0  0  0
 21 25  1  0  0  0  0
 22 33  1  0  0  0  0
 23 33  1  0  0  0  0
 24 25  1  0  0  0  0
 24 32  1  0  0  0  0
 26 34  1  0  0  0  0
 27 35  1  0  0  0  0
 28 29  1  0  0  0  0
 28 33  1  0  0  0  0
 29 36  1  0  0  0  0
 29 37  1  0  0  0  0
  1 38  1  0  0  0  0
  2 39  1  0  0  0  0
  3 40  1  0  0  0  0
  4 41  1  0  0  0  0
  5 42  1  0  0  0  0
  6 43  1  0  0  0  0
  7 44  1  0  0  0  0
  8 45  1  0  0  0  0
  9 46  1  0  0  0  0
 16 47  1  0  0  0  0
 17 48  1  0  0  0  0
 18 49  1  0  0  0  0
 20 50  1  0  0  0  0
 20 51  1  0  0  0  0
 21 52  1  0  0  0  0
 21 53  1  0  0  0  0
 22 54  1  0  0  0  0
 22 55  1  0  0  0  0
 23 56  1  0  0  0  0
 23 57  1  0  0  0  0
 24 58  1  0  0  0  0
 24 59  1  0  0  0  0
 26 60  1  0  0  0  0
 26 61  1  0  0  0  0
 26 62  1  0  0  0  0
 27 63  1  0  0  0  0
 27 64  1  0  0  0  0
 28 65  1  0  0  0  0
 28 66  1  0  0  0  0
 29 67  1  0  0  0  0
 31 68  1  0  0  0  0
M  CHG  1  31   1
M  END
> <SMILES>
COc1cc2c(cc1OCc1ccccc1)N(CC12CCN(CC1)CC(F)F)c1ccn2ccnc2c1

> <FORMATTED_ID>
H3D-013849

> <MOLFORMULA>
C29H30F2N4O2

> <Exact Mass>
504.23

> <XLogP>
6.52

> <TPSA_NOPS>
42.2

> <s_m_source_file>
ligprep_h3d.sdf

> <i_m_source_file_index>
5138

> <i_lp_mmshare_version>
55123

> <i_f3d_flags>
0

> <s_epik_input>
W2NIXTFbY0hdW2NIXVtjSF1bY0hdYzFbQ0gyXU9jKGMoW2NIXTIpT1tDSDNdKVtjSF1jKGMyQzM0W0NIMl1bQ0gyXU4oW0NIMl1bQ0gyXTQpW0NIMl1bQ0hdKEYpRilOKFtDSDJdMyljKFtjSF1bY0hdNSlbY0hdYyhuNTYpbltjSF1bY0hdNg==

> <s_epik_cmdline>
J2VwaWtfcHl0aG9uJywgJy1waHQnLCAnMC41JywgJy1waCcsICc3LjUnLCAnLXRuJywgJzgnLCAnLW1hJywgJzUwMCcsICctaW1hZScsICc8aW5maWxlLm1hZT4nLCAnLW9tYWUnLCAnPG91dGZpbGUubWFlPic=

> <r_lp_tautomer_probability>
1

> <r_epik_Ionization_Penalty>
0.394865

> <r_epik_Ionization_Penalty_Charging>
0

> <r_epik_Ionization_Penalty_Neutral>
0.394865

> <r_epik_State_Penalty>
0.400719

> <r_epik_Charging_Adjusted_Penalty>
0.400719

> <i_epik_Tot_Q>
1

> <i_epik_Tot_abs_Q>
1

> <s_lp_Force_Field>
S-OPLS

> <r_lp_Energy>
68.4198

> <b_lp_Chiralities_Consistent>
1

> <s_lp_Variant>
ligprep_h3d.sdf:5138-1

> <ROCS_ShapeQuery>
_7L13

> <ROCS_TanimotoCombo>
0.738 

> <ROCS_ShapeTanimoto>
0.678 

> <ROCS_ColorTanimoto>
0.060 

> <ROCS_RefTversky>
0.822 

> <ROCS_RefColorTversky>
0.125 

> <ROCS_RefTverskyCombo>
0.946 

> <ROCS_FitTversky>
0.795 

> <ROCS_FitColorTversky>
0.104 

> <ROCS_FitTverskyCombo>
0.899 

> <ROCS_ColorScore>
-1.133

> <ROCS_Overlap>
1367.013

> <ROCS_Rank>
44                  

$$$$
ligprep_h3d.sdf:1580_1740
  -OEChem-08212117123D

 65 69  0     0  0  0  0  0  0999 V2000
  -23.3600   -3.9841  -22.0882 C   0  0  0  0  0  0  0  0  0  0  0  0
  -23.1079   -3.8779  -23.4559 C   0  0  0  0  0  0  0  0  0  0  0  0
  -24.6318   -4.3395  -21.6389 C   0  0  0  0  0  0  0  0  0  0  0  0
  -22.7479   -3.0881  -30.4790 C   0  0  0  0  0  0  0  0  0  0  0  0
  -21.0353   -4.7291  -30.8773 C   0  0  0  0  0  0  0  0  0  0  0  0
  -25.3995   -4.4825  -23.9252 C   0  0  0  0  0  0  0  0  0  0  0  0
  -20.5019   -4.6037  -28.0072 C   0  0  0  0  0  0  0  0  0  0  0  0
  -22.8309   -2.9203  -31.8518 C   0  0  0  0  0  0  0  0  0  0  0  0
  -21.8304   -4.0117  -29.9905 C   0  0  0  0  0  0  0  0  0  0  0  0
  -24.1276   -4.1271  -24.3744 C   0  0  0  0  0  0  0  0  0  0  0  0
  -25.6515   -4.5887  -22.5574 C   0  0  0  0  0  0  0  0  0  0  0  0
  -21.7039   -4.2234  -28.5683 C   0  0  0  0  0  0  0  0  0  0  0  0
  -20.5096   -4.7739  -26.6378 C   0  0  0  0  0  0  0  0  0  0  0  0
  -21.1951   -4.4880  -32.2323 C   0  0  0  0  0  0  0  0  0  0  0  0
  -22.7117   -4.2203  -26.5308 C   0  0  0  0  0  0  0  0  0  0  0  0
  -19.8219   -7.4286  -35.4316 C   0  0  0  0  0  0  0  0  0  0  0  0
  -19.7869   -6.4942  -36.6088 C   0  0  0  0  0  0  0  0  0  0  0  0
  -19.3963   -5.9689  -24.8063 C   0  0  0  0  0  0  0  0  0  0  0  0
  -18.1275   -4.3011  -26.1494 C   0  0  0  0  0  0  0  0  0  0  0  0
  -18.1199   -6.7741  -24.6036 C   0  0  0  0  0  0  0  0  0  0  0  0
  -16.8523   -5.1077  -25.9391 C   0  0  0  0  0  0  0  0  0  0  0  0
  -19.4854   -5.9771  -35.2295 C   0  0  0  0  0  0  0  0  0  0  0  0
  -15.6539   -6.5565  -24.3008 C   0  0  0  0  0  0  0  0  0  0  0  0
  -27.8883   -5.1763  -23.1116 C   0  0  0  0  0  0  0  0  0  0  0  0
  -20.4487   -5.0715  -34.5406 C   0  0  0  0  0  0  0  0  0  0  0  0
  -22.0754   -3.5988  -32.7443 N   0  0  0  0  0  0  0  0  0  0  0  0
  -22.8327   -4.0222  -27.8572 N   0  0  0  0  0  0  0  0  0  0  0  0
  -21.6005   -4.5899  -25.8656 N   0  0  0  0  0  0  0  0  0  0  0  0
  -19.3097   -5.1603  -26.0295 N   0  0  0  0  0  0  0  0  0  0  0  0
  -23.8735   -4.0188  -25.7545 N   0  0  0  0  0  0  0  0  0  0  0  0
  -20.3795   -5.2280  -33.1244 N   0  0  0  0  0  0  0  0  0  0  0  0
  -16.9353   -5.8418  -24.6255 N   0  3  0  0  0  0  0  0  0  0  0  0
  -26.8924   -4.9356  -22.1187 O   0  0  0  0  0  0  0  0  0  0  0  0
  -22.5660   -3.7899  -21.3729 H   0  0  0  0  0  0  0  0  0  0  0  0
  -22.1135   -3.5989  -23.7949 H   0  0  0  0  0  0  0  0  0  0  0  0
  -24.8219   -4.4213  -20.5722 H   0  0  0  0  0  0  0  0  0  0  0  0
  -23.3850   -2.5090  -29.8181 H   0  0  0  0  0  0  0  0  0  0  0  0
  -20.3111   -5.4555  -30.5193 H   0  0  0  0  0  0  0  0  0  0  0  0
  -26.1978   -4.6776  -24.6374 H   0  0  0  0  0  0  0  0  0  0  0  0
  -19.6098   -4.7588  -28.6031 H   0  0  0  0  0  0  0  0  0  0  0  0
  -23.5296   -2.2112  -32.2835 H   0  0  0  0  0  0  0  0  0  0  0  0
  -20.7891   -7.7878  -35.1024 H   0  0  0  0  0  0  0  0  0  0  0  0
  -19.0193   -8.1497  -35.3365 H   0  0  0  0  0  0  0  0  0  0  0  0
  -18.9608   -6.5885  -37.3029 H   0  0  0  0  0  0  0  0  0  0  0  0
  -20.7308   -6.2278  -37.0682 H   0  0  0  0  0  0  0  0  0  0  0  0
  -20.2412   -6.6654  -24.8742 H   0  0  0  0  0  0  0  0  0  0  0  0
  -19.5739   -5.3187  -23.9396 H   0  0  0  0  0  0  0  0  0  0  0  0
  -18.1810   -3.4853  -25.4164 H   0  0  0  0  0  0  0  0  0  0  0  0
  -18.0915   -3.8455  -27.1467 H   0  0  0  0  0  0  0  0  0  0  0  0
  -18.1301   -7.2693  -23.6270 H   0  0  0  0  0  0  0  0  0  0  0  0
  -17.9762   -7.5230  -25.3908 H   0  0  0  0  0  0  0  0  0  0  0  0
  -16.7002   -5.8491  -26.7319 H   0  0  0  0  0  0  0  0  0  0  0  0
  -15.9827   -4.4439  -25.8902 H   0  0  0  0  0  0  0  0  0  0  0  0
  -18.4567   -5.7271  -34.9998 H   0  0  0  0  0  0  0  0  0  0  0  0
  -15.4844   -7.3067  -25.0754 H   0  0  0  0  0  0  0  0  0  0  0  0
  -14.8519   -5.8160  -24.2893 H   0  0  0  0  0  0  0  0  0  0  0  0
  -15.7709   -7.0237  -23.3211 H   0  0  0  0  0  0  0  0  0  0  0  0
  -28.8303   -5.4439  -22.6266 H   0  0  0  0  0  0  0  0  0  0  0  0
  -27.5612   -5.9865  -23.7682 H   0  0  0  0  0  0  0  0  0  0  0  0
  -28.0299   -4.2672  -23.7008 H   0  0  0  0  0  0  0  0  0  0  0  0
  -20.2093   -4.0294  -34.7987 H   0  0  0  0  0  0  0  0  0  0  0  0
  -21.4685   -5.3080  -34.8785 H   0  0  0  0  0  0  0  0  0  0  0  0
  -24.6829   -3.7408  -26.3006 H   0  0  0  0  0  0  0  0  0  0  0  0
  -19.7417   -5.8782  -32.7129 H   0  0  0  0  0  0  0  0  0  0  0  0
  -17.0756   -5.1408  -23.8847 H   0  0  0  0  0  0  0  0  0  0  0  0
  1  2  2  0  0  0  0
  1  3  1  0  0  0  0
  2 10  1  0  0  0  0
  3 11  2  0  0  0  0
  4  8  1  0  0  0  0
  4  9  2  0  0  0  0
  5  9  1  0  0  0  0
  5 14  2  0  0  0  0
  6 10  2  0  0  0  0
  6 11  1  0  0  0  0
  7 12  1  0  0  0  0
  7 13  2  0  0  0  0
  8 26  2  0  0  0  0
  9 12  1  0  0  0  0
 10 30  1  0  0  0  0
 11 33  1  0  0  0  0
 12 27  2  0  0  0  0
 13 28  1  0  0  0  0
 13 29  1  0  0  0  0
 14 26  1  0  0  0  0
 14 31  1  0  0  0  0
 15 27  1  0  0  0  0
 15 28  2  0  0  0  0
 15 30  1  0  0  0  0
 16 17  1  0  0  0  0
 16 22  1  0  0  0  0
 17 22  1  0  0  0  0
 18 20  1  0  0  0  0
 18 29  1  0  0  0  0
 19 21  1  0  0  0  0
 19 29  1  0  0  0  0
 20 32  1  0  0  0  0
 21 32  1  0  0  0  0
 22 25  1  0  0  0  0
 23 32  1  0  0  0  0
 24 33  1  0  0  0  0
 25 31  1  0  0  0  0
  1 34  1  0  0  0  0
  2 35  1  0  0  0  0
  3 36  1  0  0  0  0
  4 37  1  0  0  0  0
  5 38  1  0  0  0  0
  6 39  1  0  0  0  0
  7 40  1  0  0  0  0
  8 41  1  0  0  0  0
 16 42  1  0  0  0  0
 16 43  1  0  0  0  0
 17 44  1  0  0  0  0
 17 45  1  0  0  0  0
 18 46  1  0  0  0  0
 18 47  1  0  0  0  0
 19 48  1  0  0  0  0
 19 49  1  0  0  0  0
 20 50  1  0  0  0  0
 20 51  1  0  0  0  0
 21 52  1  0  0  0  0
 21 53  1  0  0  0  0
 22 54  1  0  0  0  0
 23 55  1  0  0  0  0
 23 56  1  0  0  0  0
 23 57  1  0  0  0  0
 24 58  1  0  0  0  0
 24 59  1  0  0  0  0
 24 60  1  0  0  0  0
 25 61  1  0  0  0  0
 25 62  1  0  0  0  0
 30 63  1  0  0  0  0
 31 64  1  0  0  0  0
 32 65  1  0  0  0  0
M  CHG  1  32   1
M  END
> <SMILES>
COc1cccc(c1)Nc1nc(cc(n1)-c1ccnc(c1)NCC1CC1)N1CCN(C)CC1

> <FORMATTED_ID>
H3D-014945

> <MOLFORMULA>
C25H31N7O

> <Exact Mass>
445.26

> <XLogP>
3.07

> <TPSA_NOPS>
78.4

> <s_m_source_file>
ligprep_h3d.sdf

> <i_m_source_file_index>
1580

> <i_lp_mmshare_version>
55123

> <i_f3d_flags>
0

> <s_epik_input>
W0NIM11PYzFbY0hdW2NIXVtjSF1jKFtjSF0xKVtOSF1jMm5jKE4zW0NIMl1bQ0gyXU4oW0NIM10pW0NIMl1bQ0gyXTMpW2NIXWMobjIpLWM0W2NIXVtjSF1uYyhbY0hdNClbTkhdW0NIMl1bQ0hdNVtDSDJdW0NIMl01

> <s_epik_cmdline>
J2VwaWtfcHl0aG9uJywgJy1waHQnLCAnMC41JywgJy1waCcsICc3LjUnLCAnLXRuJywgJzgnLCAnLW1hJywgJzUwMCcsICctaW1hZScsICc8aW5maWxlLm1hZT4nLCAnLW9tYWUnLCAnPG91dGZpbGUubWFlPic=

> <r_lp_tautomer_probability>
0.999999

> <r_epik_Ionization_Penalty>
0.470658

> <r_epik_Ionization_Penalty_Charging>
0.459246

> <r_epik_Ionization_Penalty_Neutral>
0.0114117

> <r_epik_State_Penalty>
0.302615

> <r_epik_Charging_Adjusted_Penalty>
0.761861

> <i_epik_Tot_Q>
1

> <i_epik_Tot_abs_Q>
1

> <s_lp_Force_Field>
S-OPLS

> <r_lp_Energy>
68.9673

> <b_lp_Chiralities_Consistent>
1

> <s_lp_Variant>
ligprep_h3d.sdf:1580-1

> <ROCS_ShapeQuery>
_7L13

> <ROCS_TanimotoCombo>
0.908 

> <ROCS_ShapeTanimoto>
0.752 

> <ROCS_ColorTanimoto>
0.156 

> <ROCS_RefTversky>
0.822 

> <ROCS_RefColorTversky>
0.310 

> <ROCS_RefTverskyCombo>
1.132 

> <ROCS_FitTversky>
0.898 

> <ROCS_FitColorTversky>
0.239 

> <ROCS_FitTverskyCombo>
1.138 

> <ROCS_ColorScore>
-2.836

> <ROCS_Overlap>
1357.967

> <ROCS_Rank>
45                  

$$$$
ligprep_h3d.sdf:989_1973
  -OEChem-08212117123D

 58 63  0     1  0  0  0  0  0999 V2000
  -20.5914   -4.7482  -29.5186 C   0  0  0  0  0  0  0  0  0  0  0  0
  -21.4866   -4.1757  -30.4244 C   0  0  0  0  0  0  0  0  0  0  0  0
  -20.8492   -4.6203  -28.1319 C   0  0  0  0  0  0  0  0  0  0  0  0
  -22.0006   -3.9698  -27.6295 C   0  0  0  0  0  0  0  0  0  0  0  0
  -22.5877   -3.5134  -29.9281 C   0  0  0  0  0  0  0  0  0  0  0  0
  -22.8799   -3.3828  -28.5702 C   0  0  0  0  0  0  0  0  0  0  0  0
  -21.6200   -4.0497  -31.8196 C   0  0  0  0  0  0  0  0  0  0  0  0
  -19.1660   -3.1279  -26.0277 C   0  0  0  0  0  0  0  0  0  0  0  0
  -18.9618   -5.4638  -24.9563 C   0  0  0  0  0  0  0  0  0  0  0  0
  -16.9489   -4.0971  -25.4650 C   0  0  0  0  0  0  0  0  0  0  0  0
  -19.7481   -7.5669  -35.9088 C   0  0  0  0  0  0  0  0  0  0  0  0
  -19.8522   -5.2320  -27.1841 C   0  0  0  0  0  0  0  0  0  0  0  0
  -23.4468   -3.2508  -25.7388 C   0  0  0  0  0  0  0  0  0  0  0  0
  -19.9686   -5.3944  -35.2611 C   0  0  0  0  0  0  0  0  0  0  0  0
  -21.2587   -4.4080  -25.2542 C   0  0  2  0  0  0  0  0  0  0  0  0
  -19.6786   -6.2262  -34.0285 C   0  0  1  0  0  0  0  0  0  0  0  0
  -23.8089   -3.7269  -24.3292 C   0  0  1  0  0  0  0  0  0  0  0  0
  -21.4226   -3.5303  -23.9793 C   0  0  2  0  0  0  0  0  0  0  0  0
  -19.8076   -4.5089  -25.8148 C   0  0  0  0  0  0  0  0  0  0  0  0
  -24.4587   -5.1093  -24.3239 C   0  0  0  0  0  0  0  0  0  0  0  0
  -20.4422   -3.8037  -22.8450 C   0  0  0  0  0  0  0  0  0  0  0  0
  -20.6003   -5.9280  -32.8626 C   0  0  0  0  0  0  0  0  0  0  0  0
  -22.7139   -3.3635  -32.1642 N   0  0  0  0  0  0  0  0  0  0  0  0
  -17.7818   -3.1048  -25.9617 N   0  0  0  0  0  0  0  0  0  0  0  0
  -17.5981   -5.2152  -24.9611 N   0  0  0  0  0  0  0  0  0  0  0  0
  -19.8167   -7.5560  -34.5328 N   0  0  0  0  0  0  0  0  0  0  0  0
  -22.2370   -3.9047  -26.2542 N   0  0  3  0  0  0  0  0  0  0  0  0
  -19.8136   -2.1176  -26.3018 O   0  0  0  0  0  0  0  0  0  0  0  0
  -19.4390   -6.4383  -24.3733 O   0  0  0  0  0  0  0  0  0  0  0  0
  -15.7230   -3.9767  -25.4359 O   0  0  0  0  0  0  0  0  0  0  0  0
  -19.7091   -8.5512  -36.6333 O   0  0  0  0  0  0  0  0  0  0  0  0
  -23.3241   -3.0229  -30.9625 O   0  0  0  0  0  0  0  0  0  0  0  0
  -19.7118   -6.2743  -36.3696 O   0  0  0  0  0  0  0  0  0  0  0  0
  -22.7216   -3.7333  -23.4091 O   0  0  0  0  0  0  0  0  0  0  0  0
  -20.8157   -4.5096  -32.7872 O   0  0  0  0  0  0  0  0  0  0  0  0
  -23.9252   -2.6210  -28.2271 F   0  0  0  0  0  0  0  0  0  0  0  0
  -19.7085   -5.2727  -29.8728 H   0  0  0  0  0  0  0  0  0  0  0  0
  -20.1245   -6.2890  -27.0580 H   0  0  0  0  0  0  0  0  0  0  0  0
  -18.8543   -5.2173  -27.6432 H   0  0  0  0  0  0  0  0  0  0  0  0
  -24.2751   -3.4953  -26.4359 H   0  0  0  0  0  0  0  0  0  0  0  0
  -23.4222   -2.1503  -25.7195 H   0  0  0  0  0  0  0  0  0  0  0  0
  -21.0084   -5.0569  -35.3277 H   0  0  0  0  0  0  0  0  0  0  0  0
  -19.3038   -4.5286  -35.3341 H   0  0  0  0  0  0  0  0  0  0  0  0
  -21.6037   -5.4226  -25.0014 H   0  0  0  0  0  0  0  0  0  0  0  0
  -18.6328   -6.1073  -33.7234 H   0  0  0  0  0  0  0  0  0  0  0  0
  -24.6008   -3.0173  -23.9036 H   0  0  0  0  0  0  0  0  0  0  0  0
  -21.3357   -2.4570  -24.2291 H   0  0  0  0  0  0  0  0  0  0  0  0
  -23.7629   -5.8499  -24.7184 H   0  0  0  0  0  0  0  0  0  0  0  0
  -25.3558   -5.1018  -24.9431 H   0  0  0  0  0  0  0  0  0  0  0  0
  -24.7333   -5.3883  -23.3066 H   0  0  0  0  0  0  0  0  0  0  0  0
  -20.4876   -4.8543  -22.5581 H   0  0  0  0  0  0  0  0  0  0  0  0
  -20.6925   -3.1897  -21.9798 H   0  0  0  0  0  0  0  0  0  0  0  0
  -19.4271   -3.5678  -23.1647 H   0  0  0  0  0  0  0  0  0  0  0  0
  -20.1531   -6.2670  -31.9235 H   0  0  0  0  0  0  0  0  0  0  0  0
  -21.5657   -6.4243  -32.9996 H   0  0  0  0  0  0  0  0  0  0  0  0
  -17.3268   -2.2692  -26.3161 H   0  0  0  0  0  0  0  0  0  0  0  0
  -17.0126   -5.9038  -24.4976 H   0  0  0  0  0  0  0  0  0  0  0  0
  -19.9476   -8.3808  -33.9556 H   0  0  0  0  0  0  0  0  0  0  0  0
  1  2  2  0  0  0  0
  1  3  1  0  0  0  0
  2  5  1  0  0  0  0
  2  7  1  0  0  0  0
  3  4  2  0  0  0  0
  3 12  1  0  0  0  0
  4  6  1  0  0  0  0
  4 27  1  0  0  0  0
  5  6  2  0  0  0  0
  5 32  1  0  0  0  0
  6 36  1  0  0  0  0
  7 23  2  0  0  0  0
  7 35  1  0  0  0  0
  8 19  1  0  0  0  0
  8 24  1  0  0  0  0
  8 28  2  0  0  0  0
  9 19  1  0  0  0  0
  9 25  1  0  0  0  0
  9 29  2  0  0  0  0
 10 24  1  0  0  0  0
 10 25  1  0  0  0  0
 10 30  2  0  0  0  0
 11 26  1  0  0  0  0
 11 31  2  0  0  0  0
 11 33  1  0  0  0  0
 12 19  1  0  0  0  0
 13 17  1  0  0  0  0
 13 27  1  0  0  0  0
 14 16  1  0  0  0  0
 14 33  1  0  0  0  0
 15 18  1  0  0  0  0
 15 19  1  0  0  0  0
 15 27  1  0  0  0  0
 16 22  1  0  0  0  0
 16 26  1  0  0  0  0
 17 20  1  0  0  0  0
 17 34  1  0  0  0  0
 18 21  1  0  0  0  0
 18 34  1  0  0  0  0
 22 35  1  0  0  0  0
 23 32  1  0  0  0  0
  1 37  1  0  0  0  0
 12 38  1  0  0  0  0
 12 39  1  0  0  0  0
 13 40  1  0  0  0  0
 13 41  1  0  0  0  0
 14 42  1  0  0  0  0
 14 43  1  0  0  0  0
 15 44  1  0  0  0  0
 16 45  1  0  0  0  0
 17 46  1  0  0  0  0
 18 47  1  0  0  0  0
 20 48  1  0  0  0  0
 20 49  1  0  0  0  0
 20 50  1  0  0  0  0
 21 51  1  0  0  0  0
 21 52  1  0  0  0  0
 21 53  1  0  0  0  0
 22 54  1  0  0  0  0
 22 55  1  0  0  0  0
 24 56  1  0  0  0  0
 25 57  1  0  0  0  0
 26 58  1  0  0  0  0
M  END
> <SMILES>
C[C@@H]1CN2[C@H]([C@H](C)O1)C1(Cc3cc4c(noc4c(c32)F)OC[C@@H]2COC(=O)N2)C(=O)NC(=O)NC1=O

> <FORMATTED_ID>
H3D-006109

> <MOLFORMULA>
C22H22FN5O8

> <Exact Mass>
503.15

> <XLogP>
-0.35

> <TPSA_NOPS>
161.6

> <s_m_source_file>
ligprep_h3d.sdf

> <i_m_source_file_index>
989

> <i_lp_mmshare_version>
55123

> <i_f3d_flags>
0

> <s_epik_input>
Tz1DMVtOSF1DKD1PKVtOSF1DKD1PKUMxMltDQEBIXTNOKFtDSDJdW0NAQEhdKFtDSDNdKU9bQ0BIXTNbQ0gzXSljNGMoW0NIMl0yKVtjSF1jNWMoYzRGKW9uYzVPW0NIMl1bQ0BASF02W0NIMl1PQyg9TylbTkhdNg==

> <s_epik_cmdline>
J2VwaWtfcHl0aG9uJywgJy1waHQnLCAnMC41JywgJy1waCcsICc3LjUnLCAnLXRuJywgJzgnLCAnLW1hJywgJzUwMCcsICctaW1hZScsICc8aW5maWxlLm1hZT4nLCAnLW9tYWUnLCAnPG91dGZpbGUubWFlPic=

> <r_lp_tautomer_probability>
1

> <r_epik_Ionization_Penalty>
0.369129

> <r_epik_Ionization_Penalty_Charging>
0

> <r_epik_Ionization_Penalty_Neutral>
0.369129

> <r_epik_State_Penalty>
0.366447

> <r_epik_Charging_Adjusted_Penalty>
0.366447

> <i_epik_Tot_Q>
0

> <i_epik_Tot_abs_Q>
0

> <s_epik_Chemistry_Notes>
This compound has an ester and may undergo hydrolysis at high or low pH.

> <s_lp_Force_Field>
S-OPLS

> <r_lp_Energy>
32.5089

> <b_lp_Chiralities_Consistent>
1

> <s_lp_Variant>
ligprep_h3d.sdf:989-1

> <ROCS_ShapeQuery>
_7L13

> <ROCS_TanimotoCombo>
0.790 

> <ROCS_ShapeTanimoto>
0.681 

> <ROCS_ColorTanimoto>
0.109 

> <ROCS_RefTversky>
0.821 

> <ROCS_RefColorTversky>
0.262 

> <ROCS_RefTverskyCombo>
1.084 

> <ROCS_FitTversky>
0.800 

> <ROCS_FitColorTversky>
0.156 

> <ROCS_FitTverskyCombo>
0.956 

> <ROCS_ColorScore>
-2.453

> <ROCS_Overlap>
1365.918

> <ROCS_Rank>
46                  

$$$$
ligprep_h3d.sdf:2372_1219
  -OEChem-08212117123D

103108  0     1  0  0  0  0  0999 V2000
  -25.9347   -4.7923  -23.8334 C   0  0  0  0  0  0  0  0  0  0  0  0
  -25.2513   -4.0011  -22.9101 C   0  0  0  0  0  0  0  0  0  0  0  0
  -25.2718   -5.2799  -24.9597 C   0  0  0  0  0  0  0  0  0  0  0  0
  -23.9052   -3.6973  -23.1131 C   0  0  0  0  0  0  0  0  0  0  0  0
  -23.9257   -4.9762  -25.1628 C   0  0  0  0  0  0  0  0  0  0  0  0
  -23.2423   -4.1849  -24.2394 C   0  0  0  0  0  0  0  0  0  0  0  0
  -21.4593   -4.6668  -29.1268 C   0  0  0  0  0  0  0  0  0  0  0  0
  -17.1352   -4.2387  -26.6042 C   0  0  0  0  0  0  0  0  0  0  0  0
  -20.7319   -4.3188  -28.0589 C   0  0  0  0  0  0  0  0  0  0  0  0
  -16.4183   -4.9281  -25.6964 C   0  0  0  0  0  0  0  0  0  0  0  0
  -21.4028   -3.6621  -26.8941 C   0  0  0  0  0  0  0  0  0  0  0  0
  -24.5126   -2.7293  -28.6958 C   0  0  0  0  0  0  0  0  0  0  0  0
  -21.8980   -4.9514  -35.4062 C   0  0  0  0  0  0  0  0  0  0  0  0
  -18.9741   -8.2190  -36.0811 C   0  0  0  0  0  0  0  0  0  0  0  0
  -21.2874   -2.5387  -23.9166 C   0  0  0  0  0  0  0  0  0  0  0  0
  -20.8968   -3.8134  -23.2412 C   0  0  0  0  0  0  0  0  0  0  0  0
  -22.5232   -4.8843  -34.0020 C   0  0  0  0  0  0  0  0  0  0  0  0
  -19.2741   -7.6808  -34.6709 C   0  0  0  0  0  0  0  0  0  0  0  0
  -19.4760   -5.3071  -30.7657 C   0  0  0  0  0  0  0  0  0  0  0  0
  -23.2297   -4.7739  -30.7696 C   0  0  0  0  0  0  0  0  0  0  0  0
  -20.9530   -5.3381  -30.3800 C   0  0  2  0  0  0  0  0  0  0  0  0
  -22.9384   -4.3845  -29.3033 C   0  0  2  0  0  0  0  0  0  0  0  0
  -21.0968   -6.2356  -35.5974 C   0  0  1  0  0  0  0  0  0  0  0  0
  -20.1778   -5.6322  -33.2295 C   0  0  1  0  0  0  0  0  0  0  0  0
  -20.7498   -6.6348  -37.0574 C   0  0  1  0  0  0  0  0  0  0  0  0
  -20.1392   -8.0606  -37.0610 C   0  0  2  0  0  0  0  0  0  0  0  0
  -19.2510   -6.1021  -32.0680 C   0  0  2  0  0  0  0  0  0  0  0  0
  -21.8076   -3.8605  -24.4570 C   0  0  0  0  0  0  0  0  0  0  0  0
  -19.8333   -6.2345  -34.6692 C   0  0  1  0  0  0  0  0  0  0  0  0
  -21.7140   -5.5658  -32.8426 C   0  0  1  0  0  0  0  0  0  0  0  0
  -21.8521   -4.7174  -31.4863 C   0  0  1  0  0  0  0  0  0  0  0  0
  -14.9188   -5.0054  -25.8131 C   0  0  0  0  0  0  0  0  0  0  0  0
  -16.9841   -5.6733  -24.5209 C   0  0  0  0  0  0  0  0  0  0  0  0
  -24.6826   -1.2496  -28.5299 C   0  0  0  0  0  0  0  0  0  0  0  0
  -21.9622   -6.5693  -37.9955 C   0  0  0  0  0  0  0  0  0  0  0  0
  -18.7073   -5.3046  -35.2356 C   0  0  0  0  0  0  0  0  0  0  0  0
  -22.3008   -6.9967  -32.6398 C   0  0  0  0  0  0  0  0  0  0  0  0
  -21.5032   -3.2009  -31.7054 C   0  0  0  0  0  0  0  0  0  0  0  0
  -18.6252   -4.0393  -26.6546 C   0  0  0  0  0  0  0  0  0  0  0  0
  -19.2322   -4.4736  -27.9958 C   0  0  0  0  0  0  0  0  0  0  0  0
  -21.2875   -4.3636  -25.7073 N   0  0  0  0  0  0  0  0  0  0  0  0
  -21.9423   -2.5658  -27.0227 O   0  0  0  0  0  0  0  0  0  0  0  0
  -25.3977   -3.5483  -28.4881 O   0  0  0  0  0  0  0  0  0  0  0  0
  -21.1230   -9.0351  -36.7050 O   0  0  0  0  0  0  0  0  0  0  0  0
  -19.4453   -7.4864  -31.7923 O   0  0  0  0  0  0  0  0  0  0  0  0
  -23.2378   -3.0105  -29.1067 O   0  0  0  0  0  0  0  0  0  0  0  0
  -26.9828   -5.0290  -23.6751 H   0  0  0  0  0  0  0  0  0  0  0  0
  -25.7671   -3.6214  -22.0328 H   0  0  0  0  0  0  0  0  0  0  0  0
  -25.8042   -5.8960  -25.6787 H   0  0  0  0  0  0  0  0  0  0  0  0
  -23.3816   -3.0795  -22.3884 H   0  0  0  0  0  0  0  0  0  0  0  0
  -23.4187   -5.3606  -26.0441 H   0  0  0  0  0  0  0  0  0  0  0  0
  -16.5954   -3.7453  -27.4119 H   0  0  0  0  0  0  0  0  0  0  0  0
  -22.7162   -4.8728  -36.1291 H   0  0  0  0  0  0  0  0  0  0  0  0
  -21.2652   -4.0728  -35.5725 H   0  0  0  0  0  0  0  0  0  0  0  0
  -18.0873   -7.7202  -36.4869 H   0  0  0  0  0  0  0  0  0  0  0  0
  -18.7130   -9.2810  -35.9893 H   0  0  0  0  0  0  0  0  0  0  0  0
  -21.9732   -1.8819  -23.3938 H   0  0  0  0  0  0  0  0  0  0  0  0
  -20.5254   -2.0158  -24.4831 H   0  0  0  0  0  0  0  0  0  0  0  0
  -19.8719   -4.1481  -23.3534 H   0  0  0  0  0  0  0  0  0  0  0  0
  -21.3195   -4.0150  -22.2637 H   0  0  0  0  0  0  0  0  0  0  0  0
  -22.7173   -3.8277  -33.8055 H   0  0  0  0  0  0  0  0  0  0  0  0
  -23.5251   -5.3312  -34.0537 H   0  0  0  0  0  0  0  0  0  0  0  0
  -19.9889   -8.3578  -34.1896 H   0  0  0  0  0  0  0  0  0  0  0  0
  -18.3440   -7.7376  -34.0937 H   0  0  0  0  0  0  0  0  0  0  0  0
  -19.1234   -4.2772  -30.8903 H   0  0  0  0  0  0  0  0  0  0  0  0
  -18.8807   -5.7546  -29.9605 H   0  0  0  0  0  0  0  0  0  0  0  0
  -23.6354   -5.7905  -30.7708 H   0  0  0  0  0  0  0  0  0  0  0  0
  -23.9692   -4.1191  -31.2427 H   0  0  0  0  0  0  0  0  0  0  0  0
  -21.2145   -6.3921  -30.2237 H   0  0  0  0  0  0  0  0  0  0  0  0
  -23.5487   -4.9825  -28.6204 H   0  0  0  0  0  0  0  0  0  0  0  0
  -21.7703   -7.0336  -35.2704 H   0  0  0  0  0  0  0  0  0  0  0  0
  -19.9044   -4.5766  -33.3398 H   0  0  0  0  0  0  0  0  0  0  0  0
  -20.0103   -5.9384  -37.4668 H   0  0  0  0  0  0  0  0  0  0  0  0
  -19.7868   -8.3138  -38.0681 H   0  0  0  0  0  0  0  0  0  0  0  0
  -18.2034   -5.9787  -32.3653 H   0  0  0  0  0  0  0  0  0  0  0  0
  -14.4532   -4.1772  -25.2685 H   0  0  0  0  0  0  0  0  0  0  0  0
  -14.5150   -5.9383  -25.4058 H   0  0  0  0  0  0  0  0  0  0  0  0
  -14.6171   -4.9444  -26.8640 H   0  0  0  0  0  0  0  0  0  0  0  0
  -17.2312   -6.7141  -24.7367 H   0  0  0  0  0  0  0  0  0  0  0  0
  -17.8998   -5.1839  -24.1726 H   0  0  0  0  0  0  0  0  0  0  0  0
  -16.2625   -5.6777  -23.6968 H   0  0  0  0  0  0  0  0  0  0  0  0
  -24.4249   -0.9588  -27.5085 H   0  0  0  0  0  0  0  0  0  0  0  0
  -25.7120   -0.9660  -28.7634 H   0  0  0  0  0  0  0  0  0  0  0  0
  -24.0133   -0.7281  -29.2203 H   0  0  0  0  0  0  0  0  0  0  0  0
  -22.7341   -7.2444  -37.6371 H   0  0  0  0  0  0  0  0  0  0  0  0
  -21.6611   -6.8626  -38.9972 H   0  0  0  0  0  0  0  0  0  0  0  0
  -22.3495   -5.5544  -38.0161 H   0  0  0  0  0  0  0  0  0  0  0  0
  -19.0831   -4.2962  -35.2397 H   0  0  0  0  0  0  0  0  0  0  0  0
  -18.4772   -5.6351  -36.2335 H   0  0  0  0  0  0  0  0  0  0  0  0
  -17.8499   -5.3946  -34.5914 H   0  0  0  0  0  0  0  0  0  0  0  0
  -21.7523   -7.4758  -31.8447 H   0  0  0  0  0  0  0  0  0  0  0  0
  -22.1870   -7.5410  -33.5635 H   0  0  0  0  0  0  0  0  0  0  0  0
  -23.3426   -6.8995  -32.3800 H   0  0  0  0  0  0  0  0  0  0  0  0
  -20.5508   -3.1549  -32.2010 H   0  0  0  0  0  0  0  0  0  0  0  0
  -21.4624   -2.7339  -30.7384 H   0  0  0  0  0  0  0  0  0  0  0  0
  -22.2799   -2.7733  -32.3126 H   0  0  0  0  0  0  0  0  0  0  0  0
  -19.1423   -4.5362  -25.8292 H   0  0  0  0  0  0  0  0  0  0  0  0
  -18.8188   -2.9674  -26.5192 H   0  0  0  0  0  0  0  0  0  0  0  0
  -18.7782   -3.8790  -28.7988 H   0  0  0  0  0  0  0  0  0  0  0  0
  -18.9486   -5.5144  -28.2013 H   0  0  0  0  0  0  0  0  0  0  0  0
  -20.8200   -5.2653  -25.7153 H   0  0  0  0  0  0  0  0  0  0  0  0
  -20.6923   -9.8986  -36.7875 H   0  0  0  0  0  0  0  0  0  0  0  0
  -18.7947   -7.7275  -31.1147 H   0  0  0  0  0  0  0  0  0  0  0  0
  1  2  2  0  0  0  0
  1  3  1  0  0  0  0
  2  4  1  0  0  0  0
  3  5  2  0  0  0  0
  4  6  2  0  0  0  0
  5  6  1  0  0  0  0
  6 28  1  0  0  0  0
  7  9  2  0  0  0  0
  7 21  1  0  0  0  0
  7 22  1  0  0  0  0
  8 10  2  0  0  0  0
  8 39  1  0  0  0  0
  9 11  1  0  0  0  0
  9 40  1  0  0  0  0
 10 32  1  0  0  0  0
 10 33  1  0  0  0  0
 11 41  1  0  0  0  0
 11 42  2  0  0  0  0
 12 34  1  0  0  0  0
 12 43  2  0  0  0  0
 12 46  1  0  0  0  0
 13 17  1  0  0  0  0
 13 23  1  0  0  0  0
 14 18  1  0  0  0  0
 14 26  1  0  0  0  0
 15 16  1  0  0  0  0
 15 28  1  0  0  0  0
 16 28  1  0  0  0  0
 17 30  1  0  0  0  0
 18 29  1  0  0  0  0
 19 21  1  0  0  0  0
 19 27  1  0  0  0  0
 20 22  1  0  0  0  0
 20 31  1  0  0  0  0
 21 31  1  0  0  0  0
 22 46  1  0  0  0  0
 23 25  1  0  0  0  0
 23 29  1  0  0  0  0
 24 27  1  0  0  0  0
 24 29  1  0  0  0  0
 24 30  1  0  0  0  0
 25 26  1  0  0  0  0
 25 35  1  0  0  0  0
 26 44  1  0  0  0  0
 27 45  1  0  0  0  0
 28 41  1  0  0  0  0
 29 36  1  0  0  0  0
 30 31  1  0  0  0  0
 30 37  1  0  0  0  0
 31 38  1  0  0  0  0
 39 40  1  0  0  0  0
  1 47  1  0  0  0  0
  2 48  1  0  0  0  0
  3 49  1  0  0  0  0
  4 50  1  0  0  0  0
  5 51  1  0  0  0  0
  8 52  1  0  0  0  0
 13 53  1  0  0  0  0
 13 54  1  0  0  0  0
 14 55  1  0  0  0  0
 14 56  1  0  0  0  0
 15 57  1  0  0  0  0
 15 58  1  0  0  0  0
 16 59  1  0  0  0  0
 16 60  1  0  0  0  0
 17 61  1  0  0  0  0
 17 62  1  0  0  0  0
 18 63  1  0  0  0  0
 18 64  1  0  0  0  0
 19 65  1  0  0  0  0
 19 66  1  0  0  0  0
 20 67  1  0  0  0  0
 20 68  1  0  0  0  0
 21 69  1  0  0  0  0
 22 70  1  0  0  0  0
 23 71  1  0  0  0  0
 24 72  1  0  0  0  0
 25 73  1  0  0  0  0
 26 74  1  0  0  0  0
 27 75  1  0  0  0  0
 32 76  1  0  0  0  0
 32 77  1  0  0  0  0
 32 78  1  0  0  0  0
 33 79  1  0  0  0  0
 33 80  1  0  0  0  0
 33 81  1  0  0  0  0
 34 82  1  0  0  0  0
 34 83  1  0  0  0  0
 34 84  1  0  0  0  0
 35 85  1  0  0  0  0
 35 86  1  0  0  0  0
 35 87  1  0  0  0  0
 36 88  1  0  0  0  0
 36 89  1  0  0  0  0
 36 90  1  0  0  0  0
 37 91  1  0  0  0  0
 37 92  1  0  0  0  0
 37 93  1  0  0  0  0
 38 94  1  0  0  0  0
 38 95  1  0  0  0  0
 38 96  1  0  0  0  0
 39 97  1  0  0  0  0
 39 98  1  0  0  0  0
 40 99  1  0  0  0  0
 40100  1  0  0  0  0
 41101  1  0  0  0  0
 44102  1  0  0  0  0
 45103  1  0  0  0  0
M  END
> <SMILES>
C[C@@H]1[C@H](O)CC[C@@]2(C)[C@H]1CC[C@@]1(C)[C@H]2[C@H](O)C[C@H]2/C(=C(\CCC=C(C)C)C(=O)NC3(CC3)c3ccccc3)[C@H](C[C@@]21C)OC(=O)C

> <FORMATTED_ID>
H3D-005461

> <MOLFORMULA>
C40H57NO5

> <Exact Mass>
631.42

> <XLogP>
7.59

> <TPSA_NOPS>
95.9

> <s_m_source_file>
ligprep_h3d.sdf

> <i_m_source_file_index>
2372

> <i_lp_mmshare_version>
55123

> <i_f3d_flags>
0

> <s_epik_input>
W0NIMl0xW0NIMl1bQ0BASF0oW09IXSlbQ0BASF0oW0NIM10pW0NAQEhdKFtDQF0xMltDSDNdKVtDSDJdW0NIMl1bQ0BAXTMoW0NIM10pW0NASF0yW0NASF0oW09IXSlbQ0gyXVtDQEBIXTRbQ0BdMyhbQ0gzXSlbQ0gyXVtDQEhdKE9DKD1PKVtDSDNdKUNcND1DKFxbQ0gyXVtDSDJdW0NIXT1DKFtDSDNdKVtDSDNdKUMoPU8pW05IXUM1KFtDSDJdW0NIMl01KWM2W2NIXVtjSF1bY0hdW2NIXVtjSF02

> <s_epik_cmdline>
J2VwaWtfcHl0aG9uJywgJy1waHQnLCAnMC41JywgJy1waCcsICc3LjUnLCAnLXRuJywgJzgnLCAnLW1hJywgJzUwMCcsICctaW1hZScsICc8aW5maWxlLm1hZT4nLCAnLW9tYWUnLCAnPG91dGZpbGUubWFlPic=

> <r_lp_tautomer_probability>
1

> <r_epik_Ionization_Penalty>
1.61589e-06

> <r_epik_Ionization_Penalty_Charging>
0

> <r_epik_Ionization_Penalty_Neutral>
1.61589e-06

> <r_epik_State_Penalty>
-0

> <r_epik_Charging_Adjusted_Penalty>
0

> <i_epik_Tot_Q>
0

> <i_epik_Tot_abs_Q>
0

> <s_epik_Chemistry_Notes>
This compound has an ester and may undergo hydrolysis at high or low pH.

> <s_lp_Force_Field>
S-OPLS

> <r_lp_Energy>
90.6608

> <b_lp_Chiralities_Consistent>
1

> <s_lp_Variant>
ligprep_h3d.sdf:2372-1

> <ROCS_ShapeQuery>
_7L13

> <ROCS_TanimotoCombo>
0.698 

> <ROCS_ShapeTanimoto>
0.596 

> <ROCS_ColorTanimoto>
0.102 

> <ROCS_RefTversky>
0.821 

> <ROCS_RefColorTversky>
0.230 

> <ROCS_RefTverskyCombo>
1.051 

> <ROCS_FitTversky>
0.685 

> <ROCS_FitColorTversky>
0.155 

> <ROCS_FitTverskyCombo>
0.840 

> <ROCS_ColorScore>
-2.130

> <ROCS_Overlap>
1378.975

> <ROCS_Rank>
47                  

$$$$
ligprep_h3d.sdf:5432_1912
  -OEChem-08212117123D

 80 86  0     0  0  0  0  0  0999 V2000
  -20.8418   -7.1550  -34.1132 C   0  0  0  0  0  0  0  0  0  0  0  0
  -19.5248   -5.1325  -34.0046 C   0  0  0  0  0  0  0  0  0  0  0  0
  -19.9596   -7.6788  -35.0581 C   0  0  0  0  0  0  0  0  0  0  0  0
  -18.6425   -5.6563  -34.9495 C   0  0  0  0  0  0  0  0  0  0  0  0
  -23.0483   -3.8218  -28.8275 C   0  0  0  0  0  0  0  0  0  0  0  0
  -20.4244   -4.6840  -29.3790 C   0  0  0  0  0  0  0  0  0  0  0  0
  -14.5398   -5.7437  -25.7208 C   0  0  0  0  0  0  0  0  0  0  0  0
  -15.0635   -6.7953  -26.4352 C   0  0  0  0  0  0  0  0  0  0  0  0
  -22.1749   -4.1570  -27.7998 C   0  0  0  0  0  0  0  0  0  0  0  0
  -20.6244   -5.8818  -33.5864 C   0  0  0  0  0  0  0  0  0  0  0  0
  -20.8681   -4.5848  -28.0653 C   0  0  0  0  0  0  0  0  0  0  0  0
  -22.5985   -3.9133  -30.1440 C   0  0  0  0  0  0  0  0  0  0  0  0
  -21.2948   -4.3429  -30.4181 C   0  0  0  0  0  0  0  0  0  0  0  0
  -18.8599   -6.9295  -35.4763 C   0  0  0  0  0  0  0  0  0  0  0  0
  -16.5906   -5.2350  -26.0434 C   0  0  0  0  0  0  0  0  0  0  0  0
  -17.9037   -4.6864  -26.1312 C   0  0  0  0  0  0  0  0  0  0  0  0
  -18.6057   -6.6542  -27.3859 C   0  0  0  0  0  0  0  0  0  0  0  0
  -17.3718   -7.1776  -27.3083 C   0  0  0  0  0  0  0  0  0  0  0  0
  -18.8923   -5.3521  -26.7736 C   0  0  0  0  0  0  0  0  0  0  0  0
  -23.3665   -2.9029  -24.3099 C   0  0  0  0  0  0  0  0  0  0  0  0
  -23.7774   -5.3955  -24.4848 C   0  0  0  0  0  0  0  0  0  0  0  0
  -23.0183   -2.8507  -25.7985 C   0  0  0  0  0  0  0  0  0  0  0  0
  -23.3883   -5.3570  -25.9655 C   0  0  0  0  0  0  0  0  0  0  0  0
  -25.9786   -5.0004  -20.7056 C   0  0  0  0  0  0  0  0  0  0  0  0
  -24.8549   -2.8782  -20.4210 C   0  0  0  0  0  0  0  0  0  0  0  0
  -20.9971   -4.4313  -25.7666 C   0  0  0  0  0  0  0  0  0  0  0  0
  -25.8183   -4.9221  -22.2202 C   0  0  0  0  0  0  0  0  0  0  0  0
  -24.6620   -2.7384  -21.9273 C   0  0  0  0  0  0  0  0  0  0  0  0
  -24.3307   -4.0503  -24.0247 C   0  0  0  0  0  0  0  0  0  0  0  0
  -22.4416   -4.1853  -26.3128 C   0  0  0  0  0  0  0  0  0  0  0  0
  -26.2553   -3.7498  -18.6648 C   0  0  0  0  0  0  0  0  0  0  0  0
  -23.4395   -2.2290  -31.5972 C   0  0  0  0  0  0  0  0  0  0  0  0
  -21.5727   -5.3180  -32.5693 C   0  0  0  0  0  0  0  0  0  0  0  0
  -15.4883   -4.7819  -25.4815 N   0  0  0  0  0  0  0  0  0  0  0  0
  -16.3792   -6.4703  -26.6427 N   0  0  0  0  0  0  0  0  0  0  0  0
  -20.1559   -4.8742  -26.8852 N   0  0  0  0  0  0  0  0  0  0  0  0
  -26.0595   -3.6596  -20.1114 N   0  0  0  0  0  0  0  0  0  0  0  0
  -24.5892   -4.1117  -22.5461 N   0  3  0  0  0  0  0  0  0  0  0  0
  -23.4443   -3.5868  -31.1619 O   0  0  0  0  0  0  0  0  0  0  0  0
  -20.8592   -4.4350  -31.7072 O   0  0  0  0  0  0  0  0  0  0  0  0
  -18.0111   -7.4335  -36.3817 F   0  0  0  0  0  0  0  0  0  0  0  0
  -21.6963   -7.7460  -33.7941 H   0  0  0  0  0  0  0  0  0  0  0  0
  -19.3472   -4.1397  -33.5995 H   0  0  0  0  0  0  0  0  0  0  0  0
  -20.1283   -8.6702  -35.4677 H   0  0  0  0  0  0  0  0  0  0  0  0
  -17.7865   -5.0731  -35.2756 H   0  0  0  0  0  0  0  0  0  0  0  0
  -24.0641   -3.5049  -28.6140 H   0  0  0  0  0  0  0  0  0  0  0  0
  -19.4167   -5.0143  -29.6114 H   0  0  0  0  0  0  0  0  0  0  0  0
  -13.5256   -5.6309  -25.3665 H   0  0  0  0  0  0  0  0  0  0  0  0
  -14.6291   -7.7150  -26.8022 H   0  0  0  0  0  0  0  0  0  0  0  0
  -18.0896   -3.7217  -25.6692 H   0  0  0  0  0  0  0  0  0  0  0  0
  -19.3998   -7.1852  -27.9000 H   0  0  0  0  0  0  0  0  0  0  0  0
  -17.1111   -8.1343  -27.7442 H   0  0  0  0  0  0  0  0  0  0  0  0
  -22.4475   -3.0183  -23.7219 H   0  0  0  0  0  0  0  0  0  0  0  0
  -23.8180   -1.9484  -24.0138 H   0  0  0  0  0  0  0  0  0  0  0  0
  -24.5268   -6.1820  -24.3329 H   0  0  0  0  0  0  0  0  0  0  0  0
  -22.9042   -5.6740  -23.8828 H   0  0  0  0  0  0  0  0  0  0  0  0
  -23.9297   -2.5949  -26.3549 H   0  0  0  0  0  0  0  0  0  0  0  0
  -22.3141   -2.0285  -25.9801 H   0  0  0  0  0  0  0  0  0  0  0  0
  -22.9348   -6.3175  -26.2435 H   0  0  0  0  0  0  0  0  0  0  0  0
  -24.3097   -5.2749  -26.5585 H   0  0  0  0  0  0  0  0  0  0  0  0
  -26.9007   -5.5543  -20.4918 H   0  0  0  0  0  0  0  0  0  0  0  0
  -25.1486   -5.5751  -20.2732 H   0  0  0  0  0  0  0  0  0  0  0  0
  -23.9631   -3.3354  -19.9718 H   0  0  0  0  0  0  0  0  0  0  0  0
  -24.9504   -1.8714  -19.9967 H   0  0  0  0  0  0  0  0  0  0  0  0
  -20.5692   -3.5037  -25.3634 H   0  0  0  0  0  0  0  0  0  0  0  0
  -20.9795   -5.1704  -24.9581 H   0  0  0  0  0  0  0  0  0  0  0  0
  -25.6726   -5.9191  -22.6449 H   0  0  0  0  0  0  0  0  0  0  0  0
  -26.6751   -4.4369  -22.6982 H   0  0  0  0  0  0  0  0  0  0  0  0
  -25.4923   -2.2032  -22.3987 H   0  0  0  0  0  0  0  0  0  0  0  0
  -23.7195   -2.2308  -22.1501 H   0  0  0  0  0  0  0  0  0  0  0  0
  -25.3021   -3.8575  -24.4946 H   0  0  0  0  0  0  0  0  0  0  0  0
  -26.3134   -2.7376  -18.2383 H   0  0  0  0  0  0  0  0  0  0  0  0
  -27.1900   -4.2904  -18.4545 H   0  0  0  0  0  0  0  0  0  0  0  0
  -25.4099   -4.2898  -18.2135 H   0  0  0  0  0  0  0  0  0  0  0  0
  -24.1573   -2.1041  -32.4116 H   0  0  0  0  0  0  0  0  0  0  0  0
  -22.4366   -1.9577  -31.9364 H   0  0  0  0  0  0  0  0  0  0  0  0
  -23.7253   -1.5866  -30.7609 H   0  0  0  0  0  0  0  0  0  0  0  0
  -22.3843   -4.7651  -33.0545 H   0  0  0  0  0  0  0  0  0  0  0  0
  -22.0214   -6.1189  -31.9718 H   0  0  0  0  0  0  0  0  0  0  0  0
  -23.7845   -4.5956  -22.1217 H   0  0  0  0  0  0  0  0  0  0  0  0
  1  3  1  0  0  0  0
  1 10  2  0  0  0  0
  2  4  2  0  0  0  0
  2 10  1  0  0  0  0
  3 14  2  0  0  0  0
  4 14  1  0  0  0  0
  5  9  1  0  0  0  0
  5 12  2  0  0  0  0
  6 11  1  0  0  0  0
  6 13  2  0  0  0  0
  7  8  2  0  0  0  0
  7 34  1  0  0  0  0
  8 35  1  0  0  0  0
  9 11  2  0  0  0  0
  9 30  1  0  0  0  0
 10 33  1  0  0  0  0
 11 36  1  0  0  0  0
 12 13  1  0  0  0  0
 12 39  1  0  0  0  0
 13 40  1  0  0  0  0
 14 41  1  0  0  0  0
 15 16  1  0  0  0  0
 15 34  2  0  0  0  0
 15 35  1  0  0  0  0
 16 19  2  0  0  0  0
 17 18  2  0  0  0  0
 17 19  1  0  0  0  0
 18 35  1  0  0  0  0
 19 36  1  0  0  0  0
 20 22  1  0  0  0  0
 20 29  1  0  0  0  0
 21 23  1  0  0  0  0
 21 29  1  0  0  0  0
 22 30  1  0  0  0  0
 23 30  1  0  0  0  0
 24 27  1  0  0  0  0
 24 37  1  0  0  0  0
 25 28  1  0  0  0  0
 25 37  1  0  0  0  0
 26 30  1  0  0  0  0
 26 36  1  0  0  0  0
 27 38  1  0  0  0  0
 28 38  1  0  0  0  0
 29 38  1  0  0  0  0
 31 37  1  0  0  0  0
 32 39  1  0  0  0  0
 33 40  1  0  0  0  0
  1 42  1  0  0  0  0
  2 43  1  0  0  0  0
  3 44  1  0  0  0  0
  4 45  1  0  0  0  0
  5 46  1  0  0  0  0
  6 47  1  0  0  0  0
  7 48  1  0  0  0  0
  8 49  1  0  0  0  0
 16 50  1  0  0  0  0
 17 51  1  0  0  0  0
 18 52  1  0  0  0  0
 20 53  1  0  0  0  0
 20 54  1  0  0  0  0
 21 55  1  0  0  0  0
 21 56  1  0  0  0  0
 22 57  1  0  0  0  0
 22 58  1  0  0  0  0
 23 59  1  0  0  0  0
 23 60  1  0  0  0  0
 24 61  1  0  0  0  0
 24 62  1  0  0  0  0
 25 63  1  0  0  0  0
 25 64  1  0  0  0  0
 26 65  1  0  0  0  0
 26 66  1  0  0  0  0
 27 67  1  0  0  0  0
 27 68  1  0  0  0  0
 28 69  1  0  0  0  0
 28 70  1  0  0  0  0
 29 71  1  0  0  0  0
 31 72  1  0  0  0  0
 31 73  1  0  0  0  0
 31 74  1  0  0  0  0
 32 75  1  0  0  0  0
 32 76  1  0  0  0  0
 32 77  1  0  0  0  0
 33 78  1  0  0  0  0
 33 79  1  0  0  0  0
 38 80  1  0  0  0  0
M  CHG  1  38   1
M  END
> <SMILES>
COc1cc2c(cc1OCc1ccc(cc1)F)N(CC12CC[C@H](CC1)N1CCN(C)CC1)c1ccn2ccnc2c1

> <FORMATTED_ID>
H3D-015742

> <MOLFORMULA>
C33H38FN5O2

> <Exact Mass>
555.3

> <XLogP>
6.64

> <TPSA_NOPS>
45.5

> <s_m_source_file>
ligprep_h3d.sdf

> <i_m_source_file_index>
5432

> <i_lp_mmshare_version>
55123

> <i_f3d_flags>
0

> <s_epik_input>
W2NIXTFbY0hdYyhGKVtjSF1bY0hdYzFbQ0gyXU9jKGMoW2NIXTIpT1tDSDNdKVtjSF1jKE4oW0NIMl0zKWMoW2NIXVtjSF00KVtjSF1jKG40NSluW2NIXVtjSF01KWMyW0NAXTM2W0NIMl1bQ0gyXVtDQEhdKFtDSDJdW0NIMl02KU43W0NIMl1bQ0gyXU4oW0NIM10pW0NIMl1bQ0gyXTc=

> <s_epik_cmdline>
J2VwaWtfcHl0aG9uJywgJy1waHQnLCAnMC41JywgJy1waCcsICc3LjUnLCAnLXRuJywgJzgnLCAnLW1hJywgJzUwMCcsICctaW1hZScsICc8aW5maWxlLm1hZT4nLCAnLW9tYWUnLCAnPG91dGZpbGUubWFlPic=

> <r_lp_tautomer_probability>
1

> <r_epik_Ionization_Penalty>
0.497574

> <r_epik_Ionization_Penalty_Charging>
0.496857

> <r_epik_Ionization_Penalty_Neutral>
0.000717153

> <r_epik_State_Penalty>
0.501635

> <r_epik_Charging_Adjusted_Penalty>
0.998492

> <i_epik_Tot_Q>
1

> <i_epik_Tot_abs_Q>
1

> <s_lp_Force_Field>
S-OPLS

> <r_lp_Energy>
99.5648

> <b_lp_Chiralities_Consistent>
1

> <s_lp_Variant>
ligprep_h3d.sdf:5432-2

> <ROCS_ShapeQuery>
_7L13

> <ROCS_TanimotoCombo>
0.728 

> <ROCS_ShapeTanimoto>
0.627 

> <ROCS_ColorTanimoto>
0.101 

> <ROCS_RefTversky>
0.821 

> <ROCS_RefColorTversky>
0.221 

> <ROCS_RefTverskyCombo>
1.041 

> <ROCS_FitTversky>
0.726 

> <ROCS_FitColorTversky>
0.158 

> <ROCS_FitTverskyCombo>
0.884 

> <ROCS_ColorScore>
-2.031

> <ROCS_Overlap>
1373.008

> <ROCS_Rank>
48                  

$$$$
ligprep_h3d.sdf:5416_1912
  -OEChem-08212117123D

 80 86  0     0  0  0  0  0  0999 V2000
  -20.8517   -7.1621  -34.1120 C   0  0  0  0  0  0  0  0  0  0  0  0
  -19.5307   -5.1421  -34.0048 C   0  0  0  0  0  0  0  0  0  0  0  0
  -19.9710   -7.6880  -35.0571 C   0  0  0  0  0  0  0  0  0  0  0  0
  -18.6499   -5.6681  -34.9500 C   0  0  0  0  0  0  0  0  0  0  0  0
  -23.0492   -3.8224  -28.8266 C   0  0  0  0  0  0  0  0  0  0  0  0
  -20.4272   -4.6899  -29.3790 C   0  0  0  0  0  0  0  0  0  0  0  0
  -14.5430   -5.7595  -25.7231 C   0  0  0  0  0  0  0  0  0  0  0  0
  -15.0691   -6.8104  -26.4369 C   0  0  0  0  0  0  0  0  0  0  0  0
  -22.1759   -4.1589  -27.7992 C   0  0  0  0  0  0  0  0  0  0  0  0
  -20.6316   -5.8891  -33.5859 C   0  0  0  0  0  0  0  0  0  0  0  0
  -20.8701   -4.5894  -28.0651 C   0  0  0  0  0  0  0  0  0  0  0  0
  -22.6002   -3.9153  -30.1434 C   0  0  0  0  0  0  0  0  0  0  0  0
  -21.2974   -4.3476  -30.4179 C   0  0  0  0  0  0  0  0  0  0  0  0
  -18.8700   -6.9410  -35.4761 C   0  0  0  0  0  0  0  0  0  0  0  0
  -16.5929   -5.2470  -26.0450 C   0  0  0  0  0  0  0  0  0  0  0  0
  -17.9050   -4.6959  -26.1324 C   0  0  0  0  0  0  0  0  0  0  0  0
  -18.6115   -6.6629  -27.3859 C   0  0  0  0  0  0  0  0  0  0  0  0
  -17.3786   -7.1886  -27.3087 C   0  0  0  0  0  0  0  0  0  0  0  0
  -18.8952   -5.3599  -26.7741 C   0  0  0  0  0  0  0  0  0  0  0  0
  -23.3635   -2.9010  -24.3093 C   0  0  0  0  0  0  0  0  0  0  0  0
  -23.7793   -5.3928  -24.4829 C   0  0  0  0  0  0  0  0  0  0  0  0
  -23.0158   -2.8501  -25.7981 C   0  0  0  0  0  0  0  0  0  0  0  0
  -23.3909   -5.3558  -25.9639 C   0  0  0  0  0  0  0  0  0  0  0  0
  -25.9779   -4.9918  -20.7029 C   0  0  0  0  0  0  0  0  0  0  0  0
  -24.8500   -2.8717  -20.4197 C   0  0  0  0  0  0  0  0  0  0  0  0
  -20.9978   -4.4345  -25.7665 C   0  0  0  0  0  0  0  0  0  0  0  0
  -25.8182   -4.9145  -22.2176 C   0  0  0  0  0  0  0  0  0  0  0  0
  -24.6575   -2.7329  -21.9262 C   0  0  0  0  0  0  0  0  0  0  0  0
  -24.3298   -4.0463  -24.0232 C   0  0  0  0  0  0  0  0  0  0  0  0
  -22.4420   -4.1860  -26.3121 C   0  0  0  0  0  0  0  0  0  0  0  0
  -26.2513   -3.7399  -18.6625 C   0  0  0  0  0  0  0  0  0  0  0  0
  -23.4386   -2.2300  -31.5968 C   0  0  0  0  0  0  0  0  0  0  0  0
  -21.5783   -5.3231  -32.5685 C   0  0  0  0  0  0  0  0  0  0  0  0
  -15.4895   -4.7958  -25.4838 N   0  0  0  0  0  0  0  0  0  0  0  0
  -16.3843   -6.4829  -26.6439 N   0  0  0  0  0  0  0  0  0  0  0  0
  -20.1580   -4.8796  -26.8853 N   0  0  0  0  0  0  0  0  0  0  0  0
  -26.0559   -3.6506  -20.1092 N   0  0  0  0  0  0  0  0  0  0  0  0
  -24.5877   -4.1066  -22.5444 N   0  3  0  0  0  0  0  0  0  0  0  0
  -23.4459   -3.5876  -31.1609 O   0  0  0  0  0  0  0  0  0  0  0  0
  -20.8626   -4.4411  -31.7071 O   0  0  0  0  0  0  0  0  0  0  0  0
  -18.0227   -7.4471  -36.3817 F   0  0  0  0  0  0  0  0  0  0  0  0
  -21.7072   -7.7514  -33.7922 H   0  0  0  0  0  0  0  0  0  0  0  0
  -19.3510   -4.1495  -33.6002 H   0  0  0  0  0  0  0  0  0  0  0  0
  -20.1418   -8.6792  -35.4662 H   0  0  0  0  0  0  0  0  0  0  0  0
  -17.7929   -5.0866  -35.2767 H   0  0  0  0  0  0  0  0  0  0  0  0
  -24.0643   -3.5034  -28.6128 H   0  0  0  0  0  0  0  0  0  0  0  0
  -19.4203   -5.0223  -29.6118 H   0  0  0  0  0  0  0  0  0  0  0  0
  -13.5284   -5.6486  -25.3694 H   0  0  0  0  0  0  0  0  0  0  0  0
  -14.6367   -7.7311  -26.8037 H   0  0  0  0  0  0  0  0  0  0  0  0
  -18.0888   -3.7306  -25.6707 H   0  0  0  0  0  0  0  0  0  0  0  0
  -19.4068   -7.1925  -27.8994 H   0  0  0  0  0  0  0  0  0  0  0  0
  -17.1199   -8.1460  -27.7443 H   0  0  0  0  0  0  0  0  0  0  0  0
  -22.4444   -3.0179  -23.7217 H   0  0  0  0  0  0  0  0  0  0  0  0
  -23.8130   -1.9454  -24.0133 H   0  0  0  0  0  0  0  0  0  0  0  0
  -24.5302   -6.1778  -24.3304 H   0  0  0  0  0  0  0  0  0  0  0  0
  -22.9064   -5.6728  -23.8812 H   0  0  0  0  0  0  0  0  0  0  0  0
  -23.9270   -2.5927  -26.3542 H   0  0  0  0  0  0  0  0  0  0  0  0
  -22.3102   -2.0293  -25.9804 H   0  0  0  0  0  0  0  0  0  0  0  0
  -22.9394   -6.3172  -26.2417 H   0  0  0  0  0  0  0  0  0  0  0  0
  -24.3123   -5.2720  -26.5564 H   0  0  0  0  0  0  0  0  0  0  0  0
  -26.9010   -5.5439  -20.4884 H   0  0  0  0  0  0  0  0  0  0  0  0
  -25.1489   -5.5680  -20.2706 H   0  0  0  0  0  0  0  0  0  0  0  0
  -23.9588   -3.3304  -19.9708 H   0  0  0  0  0  0  0  0  0  0  0  0
  -24.9434   -1.8645  -19.9958 H   0  0  0  0  0  0  0  0  0  0  0  0
  -20.5678   -3.5076  -25.3638 H   0  0  0  0  0  0  0  0  0  0  0  0
  -20.9812   -5.1734  -24.9577 H   0  0  0  0  0  0  0  0  0  0  0  0
  -25.6747   -5.9120  -22.6419 H   0  0  0  0  0  0  0  0  0  0  0  0
  -26.6743   -4.4278  -22.6954 H   0  0  0  0  0  0  0  0  0  0  0  0
  -25.4870   -2.1963  -22.3974 H   0  0  0  0  0  0  0  0  0  0  0  0
  -23.7142   -2.2273  -22.1496 H   0  0  0  0  0  0  0  0  0  0  0  0
  -25.3010   -3.8519  -24.4927 H   0  0  0  0  0  0  0  0  0  0  0  0
  -26.3072   -2.7273  -18.2363 H   0  0  0  0  0  0  0  0  0  0  0  0
  -27.1869   -4.2785  -18.4515 H   0  0  0  0  0  0  0  0  0  0  0  0
  -25.4067   -4.2813  -18.2113 H   0  0  0  0  0  0  0  0  0  0  0  0
  -24.1566   -2.1041  -32.4109 H   0  0  0  0  0  0  0  0  0  0  0  0
  -22.4354   -1.9609  -31.9367 H   0  0  0  0  0  0  0  0  0  0  0  0
  -23.7228   -1.5867  -30.7607 H   0  0  0  0  0  0  0  0  0  0  0  0
  -22.3890   -4.7688  -33.0535 H   0  0  0  0  0  0  0  0  0  0  0  0
  -22.0282   -6.1228  -31.9704 H   0  0  0  0  0  0  0  0  0  0  0  0
  -23.7837   -4.5919  -22.1202 H   0  0  0  0  0  0  0  0  0  0  0  0
  1  3  1  0  0  0  0
  1 10  2  0  0  0  0
  2  4  2  0  0  0  0
  2 10  1  0  0  0  0
  3 14  2  0  0  0  0
  4 14  1  0  0  0  0
  5  9  1  0  0  0  0
  5 12  2  0  0  0  0
  6 11  1  0  0  0  0
  6 13  2  0  0  0  0
  7  8  2  0  0  0  0
  7 34  1  0  0  0  0
  8 35  1  0  0  0  0
  9 11  2  0  0  0  0
  9 30  1  0  0  0  0
 10 33  1  0  0  0  0
 11 36  1  0  0  0  0
 12 13  1  0  0  0  0
 12 39  1  0  0  0  0
 13 40  1  0  0  0  0
 14 41  1  0  0  0  0
 15 16  1  0  0  0  0
 15 34  2  0  0  0  0
 15 35  1  0  0  0  0
 16 19  2  0  0  0  0
 17 18  2  0  0  0  0
 17 19  1  0  0  0  0
 18 35  1  0  0  0  0
 19 36  1  0  0  0  0
 20 22  1  0  0  0  0
 20 29  1  0  0  0  0
 21 23  1  0  0  0  0
 21 29  1  0  0  0  0
 22 30  1  0  0  0  0
 23 30  1  0  0  0  0
 24 27  1  0  0  0  0
 24 37  1  0  0  0  0
 25 28  1  0  0  0  0
 25 37  1  0  0  0  0
 26 30  1  0  0  0  0
 26 36  1  0  0  0  0
 27 38  1  0  0  0  0
 28 38  1  0  0  0  0
 29 38  1  0  0  0  0
 31 37  1  0  0  0  0
 32 39  1  0  0  0  0
 33 40  1  0  0  0  0
  1 42  1  0  0  0  0
  2 43  1  0  0  0  0
  3 44  1  0  0  0  0
  4 45  1  0  0  0  0
  5 46  1  0  0  0  0
  6 47  1  0  0  0  0
  7 48  1  0  0  0  0
  8 49  1  0  0  0  0
 16 50  1  0  0  0  0
 17 51  1  0  0  0  0
 18 52  1  0  0  0  0
 20 53  1  0  0  0  0
 20 54  1  0  0  0  0
 21 55  1  0  0  0  0
 21 56  1  0  0  0  0
 22 57  1  0  0  0  0
 22 58  1  0  0  0  0
 23 59  1  0  0  0  0
 23 60  1  0  0  0  0
 24 61  1  0  0  0  0
 24 62  1  0  0  0  0
 25 63  1  0  0  0  0
 25 64  1  0  0  0  0
 26 65  1  0  0  0  0
 26 66  1  0  0  0  0
 27 67  1  0  0  0  0
 27 68  1  0  0  0  0
 28 69  1  0  0  0  0
 28 70  1  0  0  0  0
 29 71  1  0  0  0  0
 31 72  1  0  0  0  0
 31 73  1  0  0  0  0
 31 74  1  0  0  0  0
 32 75  1  0  0  0  0
 32 76  1  0  0  0  0
 32 77  1  0  0  0  0
 33 78  1  0  0  0  0
 33 79  1  0  0  0  0
 38 80  1  0  0  0  0
M  CHG  1  38   1
M  END
> <SMILES>
COc1cc2c(cc1OCc1ccc(cc1)F)N(CC12CCC(CC1)N1CCN(C)CC1)c1ccn2ccnc2c1

> <FORMATTED_ID>
H3D-015300

> <MOLFORMULA>
C33H38FN5O2

> <Exact Mass>
555.3

> <XLogP>
6.64

> <TPSA_NOPS>
45.5

> <s_m_source_file>
ligprep_h3d.sdf

> <i_m_source_file_index>
5416

> <i_lp_mmshare_version>
55123

> <i_f3d_flags>
0

> <s_epik_input>
W2NIXTFbY0hdYyhGKVtjSF1bY0hdYzFbQ0gyXU9jKGMoW2NIXTIpT1tDSDNdKVtjSF1jKE4oW0NIMl0zKWMoW2NIXVtjSF00KVtjSF1jKG40NSluW2NIXVtjSF01KWMyW0NAXTM2W0NIMl1bQ0gyXVtDQEhdKFtDSDJdW0NIMl02KU43W0NIMl1bQ0gyXU4oW0NIM10pW0NIMl1bQ0gyXTc=

> <s_epik_cmdline>
J2VwaWtfcHl0aG9uJywgJy1waHQnLCAnMC41JywgJy1waCcsICc3LjUnLCAnLXRuJywgJzgnLCAnLW1hJywgJzUwMCcsICctaW1hZScsICc8aW5maWxlLm1hZT4nLCAnLW9tYWUnLCAnPG91dGZpbGUubWFlPic=

> <r_lp_tautomer_probability>
1

> <r_epik_Ionization_Penalty>
0.497574

> <r_epik_Ionization_Penalty_Charging>
0.496857

> <r_epik_Ionization_Penalty_Neutral>
0.000717153

> <r_epik_State_Penalty>
0.501635

> <r_epik_Charging_Adjusted_Penalty>
0.998492

> <i_epik_Tot_Q>
1

> <i_epik_Tot_abs_Q>
1

> <s_lp_Force_Field>
S-OPLS

> <r_lp_Energy>
99.5648

> <b_lp_Chiralities_Consistent>
1

> <s_lp_Variant>
ligprep_h3d.sdf:5416-2

> <ROCS_ShapeQuery>
_7L13

> <ROCS_TanimotoCombo>
0.728 

> <ROCS_ShapeTanimoto>
0.627 

> <ROCS_ColorTanimoto>
0.101 

> <ROCS_RefTversky>
0.821 

> <ROCS_RefColorTversky>
0.221 

> <ROCS_RefTverskyCombo>
1.041 

> <ROCS_FitTversky>
0.726 

> <ROCS_FitColorTversky>
0.158 

> <ROCS_FitTverskyCombo>
0.884 

> <ROCS_ColorScore>
-2.031

> <ROCS_Overlap>
1372.650

> <ROCS_Rank>
49                  

$$$$
ligprep_h3d.sdf:2209_1375
  -OEChem-08212117123D

 76 81  0     0  0  0  0  0  0999 V2000
  -21.2943   -5.5505  -23.2329 C   0  0  0  0  0  0  0  0  0  0  0  0
  -15.5987   -5.0234  -26.6637 C   0  0  0  0  0  0  0  0  0  0  0  0
  -24.5674   -5.5004  -25.3700 C   0  0  0  0  0  0  0  0  0  0  0  0
  -23.9145   -4.0359  -23.5628 C   0  0  0  0  0  0  0  0  0  0  0  0
  -16.2052   -4.5985  -27.8413 C   0  0  0  0  0  0  0  0  0  0  0  0
  -25.8554   -5.5793  -24.8407 C   0  0  0  0  0  0  0  0  0  0  0  0
  -25.2026   -4.1148  -23.0335 C   0  0  0  0  0  0  0  0  0  0  0  0
  -21.4332   -8.3875  -34.8402 C   0  0  0  0  0  0  0  0  0  0  0  0
  -20.0704   -6.4001  -35.0131 C   0  0  0  0  0  0  0  0  0  0  0  0
  -16.3629   -5.2612  -25.5202 C   0  0  0  0  0  0  0  0  0  0  0  0
  -20.5187   -9.0834  -35.6307 C   0  0  0  0  0  0  0  0  0  0  0  0
  -19.1559   -7.0960  -35.8036 C   0  0  0  0  0  0  0  0  0  0  0  0
  -23.5968   -4.7287  -24.7310 C   0  0  0  0  0  0  0  0  0  0  0  0
  -17.5876   -4.3850  -27.9098 C   0  0  0  0  0  0  0  0  0  0  0  0
  -21.2092   -7.0458  -34.5314 C   0  0  0  0  0  0  0  0  0  0  0  0
  -26.1731   -4.8865  -23.6725 C   0  0  0  0  0  0  0  0  0  0  0  0
  -17.7536   -5.0559  -25.5748 C   0  0  0  0  0  0  0  0  0  0  0  0
  -18.3516   -4.6025  -26.7519 C   0  0  0  0  0  0  0  0  0  0  0  0
  -19.3800   -8.4377  -36.1123 C   0  0  0  0  0  0  0  0  0  0  0  0
  -19.8456   -4.9561  -25.1310 C   0  0  0  0  0  0  0  0  0  0  0  0
  -22.0328   -4.1161  -26.6411 C   0  0  0  0  0  0  0  0  0  0  0  0
  -21.1579   -5.0397  -24.5609 C   0  0  0  0  0  0  0  0  0  0  0  0
  -22.2295   -4.6448  -25.2926 C   0  0  0  0  0  0  0  0  0  0  0  0
  -20.8091   -4.0274  -27.2012 C   0  0  0  0  0  0  0  0  0  0  0  0
  -18.1038   -4.0950  -29.2312 C   0  0  0  0  0  0  0  0  0  0  0  0
  -22.0263   -5.0370  -29.7190 C   0  0  0  0  0  0  0  0  0  0  0  0
  -21.2474   -2.8579  -30.7269 C   0  0  0  0  0  0  0  0  0  0  0  0
  -23.0708   -5.1635  -30.8189 C   0  0  0  0  0  0  0  0  0  0  0  0
  -22.2964   -2.9979  -31.8210 C   0  0  0  0  0  0  0  0  0  0  0  0
  -21.6659   -3.5759  -29.4422 C   0  0  0  0  0  0  0  0  0  0  0  0
  -18.3167   -4.9463  -31.4553 C   0  0  0  0  0  0  0  0  0  0  0  0
  -22.1931   -6.2968  -33.6800 C   0  0  0  0  0  0  0  0  0  0  0  0
  -21.5653   -5.1860  -32.8442 C   0  0  0  0  0  0  0  0  0  0  0  0
  -27.5511   -4.9695  -23.1084 C   0  0  0  0  0  0  0  0  0  0  0  0
  -21.4050   -5.9652  -22.1552 N   0  0  0  0  0  0  0  0  0  0  0  0
  -18.6826   -5.2606  -24.5953 N   0  0  0  0  0  0  0  0  0  0  0  0
  -19.7071   -4.4851  -26.4440 N   0  0  0  0  0  0  0  0  0  0  0  0
  -20.6275   -3.4853  -28.4437 N   0  0  0  0  0  0  0  0  0  0  0  0
  -22.6252   -4.4491  -32.0708 N   0  3  0  0  0  0  0  0  0  0  0  0
  -18.7006   -3.0518  -29.5434 O   0  0  0  0  0  0  0  0  0  0  0  0
  -18.4871   -9.1173  -36.8826 O   0  0  0  0  0  0  0  0  0  0  0  0
  -17.8544   -5.1159  -30.1110 O   0  0  0  0  0  0  0  0  0  0  0  0
  -28.3950   -5.7577  -23.8383 F   0  0  0  0  0  0  0  0  0  0  0  0
  -27.5938   -5.4797  -21.8421 F   0  0  0  0  0  0  0  0  0  0  0  0
  -28.1620   -3.7512  -23.0330 F   0  0  0  0  0  0  0  0  0  0  0  0
  -14.5249   -5.1869  -26.6368 H   0  0  0  0  0  0  0  0  0  0  0  0
  -24.3347   -6.0463  -26.2812 H   0  0  0  0  0  0  0  0  0  0  0  0
  -23.1689   -3.4299  -23.0535 H   0  0  0  0  0  0  0  0  0  0  0  0
  -15.5840   -4.4551  -28.7236 H   0  0  0  0  0  0  0  0  0  0  0  0
  -26.6054   -6.1826  -25.3454 H   0  0  0  0  0  0  0  0  0  0  0  0
  -25.4416   -3.5719  -22.1228 H   0  0  0  0  0  0  0  0  0  0  0  0
  -22.3177   -8.8985  -34.4693 H   0  0  0  0  0  0  0  0  0  0  0  0
  -19.8877   -5.3548  -34.7776 H   0  0  0  0  0  0  0  0  0  0  0  0
  -15.8888   -5.6103  -24.6080 H   0  0  0  0  0  0  0  0  0  0  0  0
  -20.6987  -10.1287  -35.8676 H   0  0  0  0  0  0  0  0  0  0  0  0
  -18.2707   -6.5875  -36.1754 H   0  0  0  0  0  0  0  0  0  0  0  0
  -22.9117   -3.7427  -27.1610 H   0  0  0  0  0  0  0  0  0  0  0  0
  -22.4205   -5.4829  -28.8015 H   0  0  0  0  0  0  0  0  0  0  0  0
  -21.1343   -5.6077  -29.9862 H   0  0  0  0  0  0  0  0  0  0  0  0
  -20.2866   -3.2391  -31.0828 H   0  0  0  0  0  0  0  0  0  0  0  0
  -21.0994   -1.7958  -30.5075 H   0  0  0  0  0  0  0  0  0  0  0  0
  -23.2645   -6.2148  -31.0870 H   0  0  0  0  0  0  0  0  0  0  0  0
  -24.0201   -4.7048  -30.5007 H   0  0  0  0  0  0  0  0  0  0  0  0
  -23.2310   -2.4981  -31.5204 H   0  0  0  0  0  0  0  0  0  0  0  0
  -21.9613   -2.5622  -32.7767 H   0  0  0  0  0  0  0  0  0  0  0  0
  -22.5575   -3.0661  -29.0294 H   0  0  0  0  0  0  0  0  0  0  0  0
  -18.0538   -5.8274  -32.0457 H   0  0  0  0  0  0  0  0  0  0  0  0
  -17.8588   -4.0539  -31.8892 H   0  0  0  0  0  0  0  0  0  0  0  0
  -19.4028   -4.8280  -31.4454 H   0  0  0  0  0  0  0  0  0  0  0  0
  -22.9522   -5.8493  -34.3355 H   0  0  0  0  0  0  0  0  0  0  0  0
  -22.7387   -6.9909  -33.0276 H   0  0  0  0  0  0  0  0  0  0  0  0
  -21.0812   -4.4438  -33.4860 H   0  0  0  0  0  0  0  0  0  0  0  0
  -20.8415   -5.5611  -32.1144 H   0  0  0  0  0  0  0  0  0  0  0  0
  -19.7602   -3.0371  -28.6110 H   0  0  0  0  0  0  0  0  0  0  0  0
  -23.4743   -4.4405  -32.7080 H   0  0  0  0  0  0  0  0  0  0  0  0
  -17.7530   -8.5363  -37.1386 H   0  0  0  0  0  0  0  0  0  0  0  0
  1 22  1  0  0  0  0
  1 35  3  0  0  0  0
  2  5  2  0  0  0  0
  2 10  1  0  0  0  0
  3  6  1  0  0  0  0
  3 13  2  0  0  0  0
  4  7  2  0  0  0  0
  4 13  1  0  0  0  0
  5 14  1  0  0  0  0
  6 16  2  0  0  0  0
  7 16  1  0  0  0  0
  8 11  1  0  0  0  0
  8 15  2  0  0  0  0
  9 12  2  0  0  0  0
  9 15  1  0  0  0  0
 10 17  2  0  0  0  0
 11 19  2  0  0  0  0
 12 19  1  0  0  0  0
 13 23  1  0  0  0  0
 14 18  2  0  0  0  0
 14 25  1  0  0  0  0
 15 32  1  0  0  0  0
 16 34  1  0  0  0  0
 17 18  1  0  0  0  0
 17 36  1  0  0  0  0
 18 37  1  0  0  0  0
 19 41  1  0  0  0  0
 20 22  1  0  0  0  0
 20 36  2  0  0  0  0
 20 37  1  0  0  0  0
 21 23  1  0  0  0  0
 21 24  2  0  0  0  0
 22 23  2  0  0  0  0
 24 37  1  0  0  0  0
 24 38  1  0  0  0  0
 25 40  2  0  0  0  0
 25 42  1  0  0  0  0
 26 28  1  0  0  0  0
 26 30  1  0  0  0  0
 27 29  1  0  0  0  0
 27 30  1  0  0  0  0
 28 39  1  0  0  0  0
 29 39  1  0  0  0  0
 30 38  1  0  0  0  0
 31 42  1  0  0  0  0
 32 33  1  0  0  0  0
 33 39  1  0  0  0  0
 34 43  1  0  0  0  0
 34 44  1  0  0  0  0
 34 45  1  0  0  0  0
  2 46  1  0  0  0  0
  3 47  1  0  0  0  0
  4 48  1  0  0  0  0
  5 49  1  0  0  0  0
  6 50  1  0  0  0  0
  7 51  1  0  0  0  0
  8 52  1  0  0  0  0
  9 53  1  0  0  0  0
 10 54  1  0  0  0  0
 11 55  1  0  0  0  0
 12 56  1  0  0  0  0
 21 57  1  0  0  0  0
 26 58  1  0  0  0  0
 26 59  1  0  0  0  0
 27 60  1  0  0  0  0
 27 61  1  0  0  0  0
 28 62  1  0  0  0  0
 28 63  1  0  0  0  0
 29 64  1  0  0  0  0
 29 65  1  0  0  0  0
 30 66  1  0  0  0  0
 31 67  1  0  0  0  0
 31 68  1  0  0  0  0
 31 69  1  0  0  0  0
 32 70  1  0  0  0  0
 32 71  1  0  0  0  0
 33 72  1  0  0  0  0
 33 73  1  0  0  0  0
 38 74  1  0  0  0  0
 39 75  1  0  0  0  0
 41 76  1  0  0  0  0
M  CHG  1  39   1
M  END
> <SMILES>
COC(=O)c1cccc2nc3c(c(cc(n3c12)NC1CCN(CC1)CCc1ccc(cc1)O)-c1ccc(cc1)C(F)(F)F)C#N

> <FORMATTED_ID>
H3D-004830

> <MOLFORMULA>
C34H30F3N5O3

> <Exact Mass>
613.23

> <XLogP>
7.9

> <TPSA_NOPS>
102.9

> <s_m_source_file>
ligprep_h3d.sdf

> <i_m_source_file_index>
2209

> <i_lp_mmshare_version>
55123

> <i_f3d_flags>
0

> <s_epik_input>
W0NIM11PQyg9TyljKFtjSF1bY0hdW2NIXTEpYyhjMTIpbjNjKG4yKWMoQyNOKWMoLWM0W2NIXVtjSF1jKEMoRikoRilGKVtjSF1bY0hdNClbY0hdYzNbTkhdW0NIXTVbQ0gyXVtDSDJdTihbQ0gyXVtDSDJdNSlbQ0gyXVtDSDJdYzZbY0hdW2NIXWMoW09IXSlbY0hdW2NIXTY=

> <s_epik_cmdline>
J2VwaWtfcHl0aG9uJywgJy1waHQnLCAnMC41JywgJy1waCcsICc3LjUnLCAnLXRuJywgJzgnLCAnLW1hJywgJzUwMCcsICctaW1hZScsICc8aW5maWxlLm1hZT4nLCAnLW9tYWUnLCAnPG91dGZpbGUubWFlPic=

> <r_lp_tautomer_probability>
1

> <r_epik_Ionization_Penalty>
0.010636

> <r_epik_Ionization_Penalty_Charging>
0.0050743

> <r_epik_Ionization_Penalty_Neutral>
0.00556173

> <r_epik_State_Penalty>
-0

> <r_epik_Charging_Adjusted_Penalty>
0.0050743

> <i_epik_Tot_Q>
1

> <i_epik_Tot_abs_Q>
1

> <s_epik_Chemistry_Notes>
This compound has an ester and may undergo hydrolysis at high or low pH.

> <s_lp_Force_Field>
S-OPLS

> <r_lp_Energy>
84.0866

> <b_lp_Chiralities_Consistent>
1

> <s_lp_Variant>
ligprep_h3d.sdf:2209-1

> <ROCS_ShapeQuery>
_7L13

> <ROCS_TanimotoCombo>
0.677 

> <ROCS_ShapeTanimoto>
0.582 

> <ROCS_ColorTanimoto>
0.094 

> <ROCS_RefTversky>
0.820 

> <ROCS_RefColorTversky>
0.215 

> <ROCS_RefTverskyCombo>
1.035 

> <ROCS_FitTversky>
0.667 

> <ROCS_FitColorTversky>
0.144 

> <ROCS_FitTverskyCombo>
0.811 

> <ROCS_ColorScore>
-1.987

> <ROCS_Overlap>
1379.854

> <ROCS_Rank>
50                  

$$$$
ligprep_h3d.sdf:5011_1569
  -OEChem-08212117123D

 69 73  0     1  0  0  0  0  0999 V2000
  -20.3413   -5.2593  -35.9302 C   0  0  0  0  0  0  0  0  0  0  0  0
  -20.3530   -7.1563  -34.4341 C   0  0  0  0  0  0  0  0  0  0  0  0
  -19.4596   -5.9319  -36.7762 C   0  0  0  0  0  0  0  0  0  0  0  0
  -19.4713   -7.8290  -35.2802 C   0  0  0  0  0  0  0  0  0  0  0  0
  -23.2735   -4.1424  -24.0964 C   0  0  0  0  0  0  0  0  0  0  0  0
  -25.3314   -4.9413  -25.0783 C   0  0  0  0  0  0  0  0  0  0  0  0
  -23.8647   -4.1715  -22.8334 C   0  0  0  0  0  0  0  0  0  0  0  0
  -25.9227   -4.9704  -23.8152 C   0  0  0  0  0  0  0  0  0  0  0  0
  -17.1501   -5.8949  -25.6627 C   0  0  0  0  0  0  0  0  0  0  0  0
  -17.4109   -3.4933  -25.6315 C   0  0  0  0  0  0  0  0  0  0  0  0
  -15.8234   -4.5554  -24.1520 C   0  0  0  0  0  0  0  0  0  0  0  0
  -20.7879   -5.8714  -34.7591 C   0  0  0  0  0  0  0  0  0  0  0  0
  -19.0246   -7.2167  -36.4513 C   0  0  0  0  0  0  0  0  0  0  0  0
  -17.7662   -4.7404  -26.1454 C   0  0  0  0  0  0  0  0  0  0  0  0
  -24.0068   -4.5272  -25.2189 C   0  0  0  0  0  0  0  0  0  0  0  0
  -25.1893   -4.5856  -22.6928 C   0  0  0  0  0  0  0  0  0  0  0  0
  -16.1787   -5.8024  -24.6659 C   0  0  0  0  0  0  0  0  0  0  0  0
  -16.4394   -3.4008  -24.6347 C   0  0  0  0  0  0  0  0  0  0  0  0
  -21.9794   -4.0031  -31.6490 C   0  0  0  0  0  0  0  0  0  0  0  0
  -22.3643   -4.1441  -29.2034 C   0  0  0  0  0  0  0  0  0  0  0  0
  -19.2856   -5.9538  -27.8380 C   0  0  0  0  0  0  0  0  0  0  0  0
  -19.3007   -3.8539  -28.0173 C   0  0  0  0  0  0  0  0  0  0  0  0
  -20.2879   -5.0521  -30.0763 C   0  0  0  0  0  0  0  0  0  0  0  0
  -21.7186   -4.9939  -28.1172 C   0  0  1  0  0  0  0  0  0  0  0  0
  -20.2435   -4.9702  -28.5479 C   0  0  0  0  0  0  0  0  0  0  0  0
  -21.7421   -5.1445  -33.8434 C   0  0  0  0  0  0  0  0  0  0  0  0
  -22.0096   -4.4953  -26.7140 C   0  0  0  0  0  0  0  0  0  0  0  0
  -21.0324   -4.3119  -32.7810 C   0  0  1  0  0  0  0  0  0  0  0  0
  -18.0832   -7.9360  -37.3572 C   0  0  0  0  0  0  0  0  0  0  0  0
  -18.7420   -4.8329  -27.1475 N   0  0  0  0  0  0  0  0  0  0  0  0
  -21.5520   -4.3872  -30.3882 N   0  0  0  0  0  0  0  0  0  0  0  0
  -23.4148   -4.4980  -26.4837 N   0  0  0  0  0  0  0  0  0  0  0  0
  -20.5707   -3.0253  -33.3585 N   0  3  0  0  0  0  0  0  0  0  0  0
  -23.0522   -3.4391  -31.8712 O   0  0  0  0  0  0  0  0  0  0  0  0
  -25.7571   -4.6136  -21.4799 F   0  0  0  0  0  0  0  0  0  0  0  0
  -15.5860   -6.9112  -24.2039 F   0  0  0  0  0  0  0  0  0  0  0  0
  -16.0968   -2.2030  -24.1426 F   0  0  0  0  0  0  0  0  0  0  0  0
  -17.7326   -7.2174  -38.4647 F   0  0  0  0  0  0  0  0  0  0  0  0
  -16.9007   -8.2719  -36.7618 F   0  0  0  0  0  0  0  0  0  0  0  0
  -18.6009   -9.1072  -37.8297 F   0  0  0  0  0  0  0  0  0  0  0  0
  -20.6747   -4.2583  -36.1912 H   0  0  0  0  0  0  0  0  0  0  0  0
  -20.6971   -7.6412  -33.5243 H   0  0  0  0  0  0  0  0  0  0  0  0
  -19.1184   -5.4477  -37.6873 H   0  0  0  0  0  0  0  0  0  0  0  0
  -19.1373   -8.8298  -35.0196 H   0  0  0  0  0  0  0  0  0  0  0  0
  -22.2406   -3.8184  -24.1945 H   0  0  0  0  0  0  0  0  0  0  0  0
  -25.9122   -5.2430  -25.9462 H   0  0  0  0  0  0  0  0  0  0  0  0
  -23.2941   -3.8722  -21.9593 H   0  0  0  0  0  0  0  0  0  0  0  0
  -26.9540   -5.2924  -23.7052 H   0  0  0  0  0  0  0  0  0  0  0  0
  -17.4188   -6.8715  -26.0567 H   0  0  0  0  0  0  0  0  0  0  0  0
  -17.8840   -2.5872  -26.0012 H   0  0  0  0  0  0  0  0  0  0  0  0
  -15.0659   -4.4839  -23.3770 H   0  0  0  0  0  0  0  0  0  0  0  0
  -23.3727   -4.5014  -29.4326 H   0  0  0  0  0  0  0  0  0  0  0  0
  -22.4158   -3.0783  -28.9721 H   0  0  0  0  0  0  0  0  0  0  0  0
  -19.7551   -6.6723  -27.1528 H   0  0  0  0  0  0  0  0  0  0  0  0
  -18.5481   -6.4728  -28.4607 H   0  0  0  0  0  0  0  0  0  0  0  0
  -18.5806   -3.4497  -28.7309 H   0  0  0  0  0  0  0  0  0  0  0  0
  -19.7924   -3.0450  -27.4697 H   0  0  0  0  0  0  0  0  0  0  0  0
  -19.4819   -4.4734  -30.5398 H   0  0  0  0  0  0  0  0  0  0  0  0
  -20.2753   -6.0721  -30.4707 H   0  0  0  0  0  0  0  0  0  0  0  0
  -22.1314   -6.0491  -28.1955 H   0  0  0  0  0  0  0  0  0  0  0  0
  -22.4320   -5.8608  -33.3764 H   0  0  0  0  0  0  0  0  0  0  0  0
  -22.3809   -4.4994  -34.4622 H   0  0  0  0  0  0  0  0  0  0  0  0
  -21.5057   -5.1679  -26.0221 H   0  0  0  0  0  0  0  0  0  0  0  0
  -21.6105   -3.4851  -26.6418 H   0  0  0  0  0  0  0  0  0  0  0  0
  -20.1559   -4.8066  -32.3616 H   0  0  0  0  0  0  0  0  0  0  0  0
  -24.0501   -4.4761  -27.2857 H   0  0  0  0  0  0  0  0  0  0  0  0
  -21.2953   -2.6093  -33.9530 H   0  0  0  0  0  0  0  0  0  0  0  0
  -19.7312   -3.1618  -33.9317 H   0  0  0  0  0  0  0  0  0  0  0  0
  -20.3431   -2.3523  -32.6190 H   0  0  0  0  0  0  0  0  0  0  0  0
  1  3  1  0  0  0  0
  1 12  2  0  0  0  0
  2  4  2  0  0  0  0
  2 12  1  0  0  0  0
  3 13  2  0  0  0  0
  4 13  1  0  0  0  0
  5  7  1  0  0  0  0
  5 15  2  0  0  0  0
  6  8  2  0  0  0  0
  6 15  1  0  0  0  0
  7 16  2  0  0  0  0
  8 16  1  0  0  0  0
  9 14  2  0  0  0  0
  9 17  1  0  0  0  0
 10 14  1  0  0  0  0
 10 18  2  0  0  0  0
 11 17  2  0  0  0  0
 11 18  1  0  0  0  0
 12 26  1  0  0  0  0
 13 29  1  0  0  0  0
 14 30  1  0  0  0  0
 15 32  1  0  0  0  0
 16 35  1  0  0  0  0
 17 36  1  0  0  0  0
 18 37  1  0  0  0  0
 19 28  1  0  0  0  0
 19 31  1  0  0  0  0
 19 34  2  0  0  0  0
 20 24  1  0  0  0  0
 20 31  1  0  0  0  0
 21 25  1  0  0  0  0
 21 30  1  0  0  0  0
 22 25  1  0  0  0  0
 22 30  1  0  0  0  0
 23 25  1  0  0  0  0
 23 31  1  0  0  0  0
 24 25  1  0  0  0  0
 24 27  1  0  0  0  0
 26 28  1  0  0  0  0
 27 32  1  0  0  0  0
 28 33  1  0  0  0  0
 29 38  1  0  0  0  0
 29 39  1  0  0  0  0
 29 40  1  0  0  0  0
  1 41  1  0  0  0  0
  2 42  1  0  0  0  0
  3 43  1  0  0  0  0
  4 44  1  0  0  0  0
  5 45  1  0  0  0  0
  6 46  1  0  0  0  0
  7 47  1  0  0  0  0
  8 48  1  0  0  0  0
  9 49  1  0  0  0  0
 10 50  1  0  0  0  0
 11 51  1  0  0  0  0
 20 52  1  0  0  0  0
 20 53  1  0  0  0  0
 21 54  1  0  0  0  0
 21 55  1  0  0  0  0
 22 56  1  0  0  0  0
 22 57  1  0  0  0  0
 23 58  1  0  0  0  0
 23 59  1  0  0  0  0
 24 60  1  0  0  0  0
 26 61  1  0  0  0  0
 26 62  1  0  0  0  0
 27 63  1  0  0  0  0
 27 64  1  0  0  0  0
 28 65  1  0  0  0  0
 32 66  1  0  0  0  0
 33 67  1  0  0  0  0
 33 68  1  0  0  0  0
 33 69  1  0  0  0  0
M  CHG  1  33   1
M  END
> <SMILES>
N[C@H](Cc1ccc(cc1)C(F)(F)F)C(=O)N1CC(CNc2ccc(cc2)F)C2(C1)CN(C2)c1cc(cc(c1)F)F

> <FORMATTED_ID>
H3D-009056

> <MOLFORMULA>
C29H28F6N4O

> <Exact Mass>
562.22

> <XLogP>
4.63

> <TPSA_NOPS>
61.6

> <s_m_source_file>
ligprep_h3d.sdf

> <i_m_source_file_index>
5011

> <i_lp_mmshare_version>
55123

> <i_f3d_flags>
0

> <s_epik_input>
W2NIXTFbY0hdYyhDKEYpKEYpRilbY0hdW2NIXWMxW0NIMl1bQ0BASF0oW05IMl0pQyg9TylOKFtDSDJdMilbQ0gyXVtDQEhdKFtDSDJdW05IXWMzW2NIXVtjSF1jKEYpW2NIXVtjSF0zKUMyNFtDSDJdTihbQ0gyXTQpYzVbY0hdYyhGKVtjSF1jKEYpW2NIXTU=

> <s_epik_cmdline>
J2VwaWtfcHl0aG9uJywgJy1waHQnLCAnMC41JywgJy1waCcsICc3LjUnLCAnLXRuJywgJzgnLCAnLW1hJywgJzUwMCcsICctaW1hZScsICc8aW5maWxlLm1hZT4nLCAnLW9tYWUnLCAnPG91dGZpbGUubWFlPic=

> <r_epik_Ionization_Penalty>
0.384723

> <r_epik_Ionization_Penalty_Charging>
0.382744

> <r_epik_Ionization_Penalty_Neutral>
0.00197845

> <r_epik_State_Penalty>
0.38092

> <r_epik_Charging_Adjusted_Penalty>
0.763664

> <i_epik_Tot_Q>
1

> <i_epik_Tot_abs_Q>
1

> <s_lp_Force_Field>
S-OPLS

> <r_lp_Energy>
42.121

> <b_lp_Chiralities_Consistent>
1

> <s_lp_Variant>
ligprep_h3d.sdf:5011-1

> <ROCS_ShapeQuery>
_7L13

> <ROCS_TanimotoCombo>
0.705 

> <ROCS_ShapeTanimoto>
0.646 

> <ROCS_ColorTanimoto>
0.059 

> <ROCS_RefTversky>
0.820 

> <ROCS_RefColorTversky>
0.112 

> <ROCS_RefTverskyCombo>
0.933 

> <ROCS_FitTversky>
0.752 

> <ROCS_FitColorTversky>
0.112 

> <ROCS_FitTverskyCombo>
0.865 

> <ROCS_ColorScore>
-1.011

> <ROCS_Overlap>
1369.068

> <ROCS_Rank>
51                  

$$$$
ligprep_h3d.sdf:1226_1356
  -OEChem-08212117123D

 67 71  0     1  0  0  0  0  0999 V2000
  -20.1761   -3.7890  -32.3676 C   0  0  0  0  0  0  0  0  0  0  0  0
  -20.5367   -6.1700  -32.1724 C   0  0  0  0  0  0  0  0  0  0  0  0
  -19.6550   -3.9729  -33.6483 C   0  0  0  0  0  0  0  0  0  0  0  0
  -20.0156   -6.3539  -33.4531 C   0  0  0  0  0  0  0  0  0  0  0  0
  -16.7065   -5.7021  -26.7342 C   0  0  0  0  0  0  0  0  0  0  0  0
  -23.0540   -4.2907  -28.8558 C   0  0  0  0  0  0  0  0  0  0  0  0
  -20.6167   -4.3834  -25.4910 C   0  0  0  0  0  0  0  0  0  0  0  0
  -16.6445   -4.3001  -26.8456 C   0  0  0  0  0  0  0  0  0  0  0  0
  -20.8676   -4.5425  -27.8903 C   0  0  0  0  0  0  0  0  0  0  0  0
  -20.6169   -4.8875  -31.6296 C   0  0  0  0  0  0  0  0  0  0  0  0
  -21.1597   -4.6959  -30.2950 C   0  0  0  0  0  0  0  0  0  0  0  0
  -19.5748   -5.2553  -34.1911 C   0  0  0  0  0  0  0  0  0  0  0  0
  -22.5221   -4.4763  -30.1342 C   0  0  0  0  0  0  0  0  0  0  0  0
  -20.3324   -4.7292  -29.1761 C   0  0  0  0  0  0  0  0  0  0  0  0
  -22.2500   -4.3192  -27.7196 C   0  0  0  0  0  0  0  0  0  0  0  0
  -20.0578   -4.5711  -26.7469 C   0  0  0  0  0  0  0  0  0  0  0  0
  -21.9789   -4.1717  -25.4239 C   0  0  0  0  0  0  0  0  0  0  0  0
  -18.0499   -5.9833  -26.6816 C   0  0  0  0  0  0  0  0  0  0  0  0
  -18.5406   -7.9094  -35.8968 C   0  0  0  0  0  0  0  0  0  0  0  0
  -22.6277   -3.9697  -24.1398 C   0  0  0  0  0  0  0  0  0  0  0  0
  -26.1103   -4.8259  -23.1393 C   0  0  0  0  0  0  0  0  0  0  0  0
  -20.5931   -8.4958  -36.9493 C   0  0  0  0  0  0  0  0  0  0  0  0
  -20.4294   -6.9892  -36.9807 C   0  0  0  0  0  0  0  0  0  0  0  0
  -19.1711   -9.0041  -36.7365 C   0  0  2  0  0  0  0  0  0  0  0  0
  -23.4555   -4.4296  -31.3022 C   0  0  0  0  0  0  0  0  0  0  0  0
  -18.8704   -4.9712  -29.4278 C   0  0  0  0  0  0  0  0  0  0  0  0
  -18.7565   -7.2740  -26.5645 C   0  0  0  0  0  0  0  0  0  0  0  0
  -19.0174   -5.4520  -35.5603 C   0  0  0  0  0  0  0  0  0  0  0  0
  -24.7451   -4.2387  -22.8225 C   0  0  0  0  0  0  0  0  0  0  0  0
  -17.8524   -3.7303  -26.8630 N   0  0  0  0  0  0  0  0  0  0  0  0
  -22.7952   -4.1367  -26.5020 N   0  0  0  0  0  0  0  0  0  0  0  0
  -18.6861   -4.7796  -26.7619 N   0  0  0  0  0  0  0  0  0  0  0  0
  -19.3131   -6.7649  -36.0911 N   0  0  0  0  0  0  0  0  0  0  0  0
  -23.9581   -4.3917  -24.0250 N   0  0  0  0  0  0  0  0  0  0  0  0
  -26.9456   -4.7846  -22.1921 O   0  5  0  0  0  0  0  0  0  0  0  0
  -17.5397   -8.0395  -35.2086 O   0  0  0  0  0  0  0  0  0  0  0  0
  -22.0181   -3.4247  -23.2016 O   0  0  0  0  0  0  0  0  0  0  0  0
  -26.2441   -5.2717  -24.3139 O   0  0  0  0  0  0  0  0  0  0  0  0
  -19.1703  -10.2464  -36.0812 O   0  0  0  0  0  0  0  0  0  0  0  0
  -20.2314   -2.7831  -31.9581 H   0  0  0  0  0  0  0  0  0  0  0  0
  -20.8768   -7.0362  -31.6098 H   0  0  0  0  0  0  0  0  0  0  0  0
  -19.3129   -3.1115  -34.2157 H   0  0  0  0  0  0  0  0  0  0  0  0
  -19.9573   -7.3566  -33.8685 H   0  0  0  0  0  0  0  0  0  0  0  0
  -15.8899   -6.4083  -26.6978 H   0  0  0  0  0  0  0  0  0  0  0  0
  -24.1242   -4.1195  -28.7446 H   0  0  0  0  0  0  0  0  0  0  0  0
  -20.0117   -4.4009  -24.5887 H   0  0  0  0  0  0  0  0  0  0  0  0
  -15.7694   -3.6701  -26.9150 H   0  0  0  0  0  0  0  0  0  0  0  0
  -21.2431   -8.8006  -36.1194 H   0  0  0  0  0  0  0  0  0  0  0  0
  -21.0338   -8.8880  -37.8710 H   0  0  0  0  0  0  0  0  0  0  0  0
  -20.1585   -6.6249  -37.9765 H   0  0  0  0  0  0  0  0  0  0  0  0
  -21.3216   -6.4707  -36.6198 H   0  0  0  0  0  0  0  0  0  0  0  0
  -18.6315   -9.0795  -37.6871 H   0  0  0  0  0  0  0  0  0  0  0  0
  -23.5367   -3.4046  -31.6798 H   0  0  0  0  0  0  0  0  0  0  0  0
  -23.1035   -5.0765  -32.1140 H   0  0  0  0  0  0  0  0  0  0  0  0
  -24.4553   -4.7812  -31.0218 H   0  0  0  0  0  0  0  0  0  0  0  0
  -18.6637   -6.0441  -29.4066 H   0  0  0  0  0  0  0  0  0  0  0  0
  -18.5737   -4.5693  -30.4006 H   0  0  0  0  0  0  0  0  0  0  0  0
  -18.2599   -4.4744  -28.6685 H   0  0  0  0  0  0  0  0  0  0  0  0
  -18.9233   -7.5411  -25.5082 H   0  0  0  0  0  0  0  0  0  0  0  0
  -19.7399   -7.2542  -27.0646 H   0  0  0  0  0  0  0  0  0  0  0  0
  -18.1927   -8.0984  -27.0338 H   0  0  0  0  0  0  0  0  0  0  0  0
  -19.4247   -4.7124  -36.2639 H   0  0  0  0  0  0  0  0  0  0  0  0
  -17.9253   -5.3326  -35.5719 H   0  0  0  0  0  0  0  0  0  0  0  0
  -24.2743   -4.7694  -21.9892 H   0  0  0  0  0  0  0  0  0  0  0  0
  -24.8285   -3.1812  -22.5532 H   0  0  0  0  0  0  0  0  0  0  0  0
  -24.4288   -4.7727  -24.8393 H   0  0  0  0  0  0  0  0  0  0  0  0
  -19.5881  -10.8966  -36.6770 H   0  0  0  0  0  0  0  0  0  0  0  0
  1  3  1  0  0  0  0
  1 10  2  0  0  0  0
  2  4  2  0  0  0  0
  2 10  1  0  0  0  0
  3 12  2  0  0  0  0
  4 12  1  0  0  0  0
  5  8  1  0  0  0  0
  5 18  2  0  0  0  0
  6 13  2  0  0  0  0
  6 15  1  0  0  0  0
  7 16  1  0  0  0  0
  7 17  2  0  0  0  0
  8 30  2  0  0  0  0
  9 14  1  0  0  0  0
  9 15  1  0  0  0  0
  9 16  2  0  0  0  0
 10 11  1  0  0  0  0
 11 13  1  0  0  0  0
 11 14  2  0  0  0  0
 12 28  1  0  0  0  0
 13 25  1  0  0  0  0
 14 26  1  0  0  0  0
 15 31  2  0  0  0  0
 16 32  1  0  0  0  0
 17 20  1  0  0  0  0
 17 31  1  0  0  0  0
 18 27  1  0  0  0  0
 18 32  1  0  0  0  0
 19 24  1  0  0  0  0
 19 33  1  0  0  0  0
 19 36  2  0  0  0  0
 20 34  1  0  0  0  0
 20 37  2  0  0  0  0
 21 29  1  0  0  0  0
 21 35  1  0  0  0  0
 21 38  2  0  0  0  0
 22 23  1  0  0  0  0
 22 24  1  0  0  0  0
 23 33  1  0  0  0  0
 24 39  1  0  0  0  0
 28 33  1  0  0  0  0
 29 34  1  0  0  0  0
 30 32  1  0  0  0  0
  1 40  1  0  0  0  0
  2 41  1  0  0  0  0
  3 42  1  0  0  0  0
  4 43  1  0  0  0  0
  5 44  1  0  0  0  0
  6 45  1  0  0  0  0
  7 46  1  0  0  0  0
  8 47  1  0  0  0  0
 22 48  1  0  0  0  0
 22 49  1  0  0  0  0
 23 50  1  0  0  0  0
 23 51  1  0  0  0  0
 24 52  1  0  0  0  0
 25 53  1  0  0  0  0
 25 54  1  0  0  0  0
 25 55  1  0  0  0  0
 26 56  1  0  0  0  0
 26 57  1  0  0  0  0
 26 58  1  0  0  0  0
 27 59  1  0  0  0  0
 27 60  1  0  0  0  0
 27 61  1  0  0  0  0
 28 62  1  0  0  0  0
 28 63  1  0  0  0  0
 29 64  1  0  0  0  0
 29 65  1  0  0  0  0
 34 66  1  0  0  0  0
 39 67  1  0  0  0  0
M  CHG  1  35  -1
M  END
> <SMILES>
Cc1cc2nc(cc(c2c(c1-c1ccc(cc1)CN1CC[C@H](O)C1=O)C)-n1nccc1C)C(=O)NCC(=O)O

> <FORMATTED_ID>
H3D-008406

> <MOLFORMULA>
C29H29N5O5

> <Exact Mass>
527.22

> <XLogP>
2.53

> <TPSA_NOPS>
137.6

> <s_m_source_file>
ligprep_h3d.sdf

> <i_m_source_file_index>
1226

> <i_lp_mmshare_version>
55123

> <i_f3d_flags>
0

> <s_epik_input>
Tz1DKFtPSF0pW0NIMl1bTkhdQyg9TyljKG4xKVtjSF1jKC1uMm5bY0hdW2NIXWMyW0NIM10pYyhjMTMpYyhbQ0gzXSljKGMoW0NIM10pW2NIXTMpLWM0W2NIXVtjSF1jKFtjSF1bY0hdNClbQ0gyXU41W0NIMl1bQ0gyXVtDQEhdKFtPSF0pQzU9Tw==

> <s_epik_cmdline>
J2VwaWtfcHl0aG9uJywgJy1waHQnLCAnMC41JywgJy1waCcsICc3LjUnLCAnLXRuJywgJzgnLCAnLW1hJywgJzUwMCcsICctaW1hZScsICc8aW5maWxlLm1hZT4nLCAnLW9tYWUnLCAnPG91dGZpbGUubWFlPic=

> <r_lp_tautomer_probability>
1

> <r_epik_Ionization_Penalty>
0.000333655

> <r_epik_Ionization_Penalty_Charging>
7.49142e-05

> <r_epik_Ionization_Penalty_Neutral>
0.000258741

> <r_epik_State_Penalty>
-0

> <r_epik_Charging_Adjusted_Penalty>
7.49142e-05

> <i_epik_Tot_Q>
-1

> <i_epik_Tot_abs_Q>
1

> <s_lp_Force_Field>
S-OPLS

> <r_lp_Energy>
53.6961

> <b_lp_Chiralities_Consistent>
1

> <s_lp_Variant>
ligprep_h3d.sdf:1226-1

> <ROCS_ShapeQuery>
_7L13

> <ROCS_TanimotoCombo>
0.790 

> <ROCS_ShapeTanimoto>
0.648 

> <ROCS_ColorTanimoto>
0.141 

> <ROCS_RefTversky>
0.820 

> <ROCS_RefColorTversky>
0.320 

> <ROCS_RefTverskyCombo>
1.140 

> <ROCS_FitTversky>
0.756 

> <ROCS_FitColorTversky>
0.202 

> <ROCS_FitTverskyCombo>
0.958 

> <ROCS_ColorScore>
-2.976

> <ROCS_Overlap>
1368.519

> <ROCS_Rank>
52                  

$$$$
ligprep_h3d.sdf:2386_1761
  -OEChem-08212117123D

102106  0     1  0  0  0  0  0999 V2000
  -23.4757   -3.8466  -23.7662 C   0  0  0  0  0  0  0  0  0  0  0  0
  -25.6288   -4.5982  -24.5641 C   0  0  0  0  0  0  0  0  0  0  0  0
  -23.6384   -4.6085  -22.6093 C   0  0  0  0  0  0  0  0  0  0  0  0
  -25.7914   -5.3603  -23.4071 C   0  0  0  0  0  0  0  0  0  0  0  0
  -24.4710   -3.8414  -24.7436 C   0  0  0  0  0  0  0  0  0  0  0  0
  -24.7962   -5.3654  -22.4297 C   0  0  0  0  0  0  0  0  0  0  0  0
  -22.1933   -3.9707  -30.1528 C   0  0  0  0  0  0  0  0  0  0  0  0
  -19.4358   -5.3448  -26.2258 C   0  0  0  0  0  0  0  0  0  0  0  0
  -21.9941   -4.0306  -28.8309 C   0  0  0  0  0  0  0  0  0  0  0  0
  -18.1218   -5.1488  -26.0061 C   0  0  0  0  0  0  0  0  0  0  0  0
  -22.7440   -3.1001  -27.9311 C   0  0  0  0  0  0  0  0  0  0  0  0
  -23.7843   -0.7239  -30.5878 C   0  0  0  0  0  0  0  0  0  0  0  0
  -19.6756   -4.1016  -35.9277 C   0  0  0  0  0  0  0  0  0  0  0  0
  -18.6826   -8.4231  -36.0696 C   0  0  0  0  0  0  0  0  0  0  0  0
  -20.7783   -3.6945  -34.9349 C   0  0  0  0  0  0  0  0  0  0  0  0
  -19.3264   -7.7816  -34.8277 C   0  0  0  0  0  0  0  0  0  0  0  0
  -20.2287   -5.5759  -30.9230 C   0  0  0  0  0  0  0  0  0  0  0  0
  -22.7888   -3.1748  -32.3566 C   0  0  0  0  0  0  0  0  0  0  0  0
  -21.5314   -4.8300  -31.2022 C   0  0  2  0  0  0  0  0  0  0  0  0
  -23.0857   -2.9661  -30.8550 C   0  0  2  0  0  0  0  0  0  0  0  0
  -19.5809   -5.6182  -36.0623 C   0  0  1  0  0  0  0  0  0  0  0  0
  -19.7363   -5.5353  -33.4576 C   0  0  1  0  0  0  0  0  0  0  0  0
  -18.8138   -6.1662  -37.2964 C   0  0  1  0  0  0  0  0  0  0  0  0
  -19.0164   -7.7017  -37.3777 C   0  0  2  0  0  0  0  0  0  0  0  0
  -19.8114   -6.3962  -32.1606 C   0  0  2  0  0  0  0  0  0  0  0  0
  -19.0750   -6.2552  -34.7220 C   0  0  1  0  0  0  0  0  0  0  0  0
  -21.0386   -4.6753  -33.7376 C   0  0  1  0  0  0  0  0  0  0  0  0
  -21.3918   -3.8536  -32.4040 C   0  0  1  0  0  0  0  0  0  0  0  0
  -17.2916   -6.2252  -25.3578 C   0  0  0  0  0  0  0  0  0  0  0  0
  -17.3555   -3.9033  -26.3507 C   0  0  0  0  0  0  0  0  0  0  0  0
  -23.6085    0.3581  -29.5658 C   0  0  0  0  0  0  0  0  0  0  0  0
  -19.2459   -5.4990  -38.6088 C   0  0  0  0  0  0  0  0  0  0  0  0
  -17.5325   -6.0539  -34.5385 C   0  0  0  0  0  0  0  0  0  0  0  0
  -22.2374   -5.5911  -34.1341 C   0  0  0  0  0  0  0  0  0  0  0  0
  -20.3235   -2.7417  -32.1005 C   0  0  0  0  0  0  0  0  0  0  0  0
  -25.6252   -2.5286  -26.5702 C   0  0  0  0  0  0  0  0  0  0  0  0
  -20.4222   -4.4039  -26.8617 C   0  0  0  0  0  0  0  0  0  0  0  0
  -20.9734   -4.9390  -28.1906 C   0  0  0  0  0  0  0  0  0  0  0  0
  -24.2948   -3.0154  -25.9996 C   0  0  2  0  0  0  0  0  0  0  0  0
  -23.5459   -3.7380  -27.0015 N   0  0  0  0  0  0  0  0  0  0  0  0
  -22.5784   -1.8855  -28.0132 O   0  0  0  0  0  0  0  0  0  0  0  0
  -24.7109   -0.7688  -31.3856 O   0  0  0  0  0  0  0  0  0  0  0  0
  -20.3734   -8.0186  -37.6978 O   0  0  0  0  0  0  0  0  0  0  0  0
  -20.7296   -7.4741  -32.3197 O   0  0  0  0  0  0  0  0  0  0  0  0
  -22.7658   -1.6325  -30.4870 O   0  0  0  0  0  0  0  0  0  0  0  0
  -24.9514   -6.0993  -21.3200 F   0  0  0  0  0  0  0  0  0  0  0  0
  -22.5705   -3.2595  -23.8969 H   0  0  0  0  0  0  0  0  0  0  0  0
  -26.4094   -4.6006  -25.3203 H   0  0  0  0  0  0  0  0  0  0  0  0
  -22.8635   -4.6132  -21.8487 H   0  0  0  0  0  0  0  0  0  0  0  0
  -26.6929   -5.9493  -23.2668 H   0  0  0  0  0  0  0  0  0  0  0  0
  -19.8666   -6.2987  -25.9227 H   0  0  0  0  0  0  0  0  0  0  0  0
  -19.9086   -3.6236  -36.8844 H   0  0  0  0  0  0  0  0  0  0  0  0
  -18.7158   -3.6813  -35.6081 H   0  0  0  0  0  0  0  0  0  0  0  0
  -17.5952   -8.4636  -35.9439 H   0  0  0  0  0  0  0  0  0  0  0  0
  -19.0233   -9.4647  -36.1272 H   0  0  0  0  0  0  0  0  0  0  0  0
  -20.5268   -2.6869  -34.5971 H   0  0  0  0  0  0  0  0  0  0  0  0
  -21.7108   -3.5583  -35.4989 H   0  0  0  0  0  0  0  0  0  0  0  0
  -20.4035   -7.9813  -34.8570 H   0  0  0  0  0  0  0  0  0  0  0  0
  -18.9304   -8.3017  -33.9477 H   0  0  0  0  0  0  0  0  0  0  0  0
  -19.4283   -4.8803  -30.6476 H   0  0  0  0  0  0  0  0  0  0  0  0
  -20.3727   -6.2524  -30.0717 H   0  0  0  0  0  0  0  0  0  0  0  0
  -23.5633   -3.8339  -32.7616 H   0  0  0  0  0  0  0  0  0  0  0  0
  -22.8142   -2.2404  -32.9272 H   0  0  0  0  0  0  0  0  0  0  0  0
  -22.2900   -5.5929  -31.4174 H   0  0  0  0  0  0  0  0  0  0  0  0
  -24.1435   -3.1486  -30.6454 H   0  0  0  0  0  0  0  0  0  0  0  0
  -20.6100   -5.9456  -36.2385 H   0  0  0  0  0  0  0  0  0  0  0  0
  -18.9899   -4.7765  -33.1965 H   0  0  0  0  0  0  0  0  0  0  0  0
  -17.7434   -5.9615  -37.1890 H   0  0  0  0  0  0  0  0  0  0  0  0
  -18.3925   -8.1193  -38.1770 H   0  0  0  0  0  0  0  0  0  0  0  0
  -18.8292   -6.8389  -31.9599 H   0  0  0  0  0  0  0  0  0  0  0  0
  -16.8695   -6.8887  -26.1199 H   0  0  0  0  0  0  0  0  0  0  0  0
  -16.4587   -5.8174  -24.7754 H   0  0  0  0  0  0  0  0  0  0  0  0
  -17.9093   -6.8228  -24.6793 H   0  0  0  0  0  0  0  0  0  0  0  0
  -17.3378   -3.1615  -25.5504 H   0  0  0  0  0  0  0  0  0  0  0  0
  -17.7952   -3.4247  -27.2321 H   0  0  0  0  0  0  0  0  0  0  0  0
  -16.3144   -4.1547  -26.5800 H   0  0  0  0  0  0  0  0  0  0  0  0
  -24.1179    0.0800  -28.6399 H   0  0  0  0  0  0  0  0  0  0  0  0
  -24.0008    1.3017  -29.9534 H   0  0  0  0  0  0  0  0  0  0  0  0
  -22.5432    0.4860  -29.3528 H   0  0  0  0  0  0  0  0  0  0  0  0
  -20.3067   -5.6697  -38.7696 H   0  0  0  0  0  0  0  0  0  0  0  0
  -18.6815   -5.9242  -39.4339 H   0  0  0  0  0  0  0  0  0  0  0  0
  -19.0554   -4.4309  -38.5517 H   0  0  0  0  0  0  0  0  0  0  0  0
  -17.3441   -4.9970  -34.4637 H   0  0  0  0  0  0  0  0  0  0  0  0
  -17.0403   -6.4740  -35.3984 H   0  0  0  0  0  0  0  0  0  0  0  0
  -17.2381   -6.5635  -33.6375 H   0  0  0  0  0  0  0  0  0  0  0  0
  -22.4262   -6.2704  -33.3184 H   0  0  0  0  0  0  0  0  0  0  0  0
  -21.9666   -6.1324  -35.0263 H   0  0  0  0  0  0  0  0  0  0  0  0
  -23.0953   -4.9632  -34.3141 H   0  0  0  0  0  0  0  0  0  0  0  0
  -19.3544   -3.2050  -32.1318 H   0  0  0  0  0  0  0  0  0  0  0  0
  -20.5350   -2.3459  -31.1241 H   0  0  0  0  0  0  0  0  0  0  0  0
  -20.4185   -1.9847  -32.8573 H   0  0  0  0  0  0  0  0  0  0  0  0
  -26.2776   -3.3712  -26.8240 H   0  0  0  0  0  0  0  0  0  0  0  0
  -26.1494   -1.9013  -25.8404 H   0  0  0  0  0  0  0  0  0  0  0  0
  -25.4872   -1.9240  -27.4737 H   0  0  0  0  0  0  0  0  0  0  0  0
  -21.2453   -4.1438  -26.1905 H   0  0  0  0  0  0  0  0  0  0  0  0
  -19.8968   -3.4610  -27.0607 H   0  0  0  0  0  0  0  0  0  0  0  0
  -20.1381   -5.0841  -28.8873 H   0  0  0  0  0  0  0  0  0  0  0  0
  -21.4014   -5.9373  -28.0291 H   0  0  0  0  0  0  0  0  0  0  0  0
  -23.6889   -2.1312  -25.7663 H   0  0  0  0  0  0  0  0  0  0  0  0
  -23.6103   -4.7513  -27.0243 H   0  0  0  0  0  0  0  0  0  0  0  0
  -20.4123   -8.9817  -37.7925 H   0  0  0  0  0  0  0  0  0  0  0  0
  -20.6757   -8.0050  -31.5098 H   0  0  0  0  0  0  0  0  0  0  0  0
  1  3  1  0  0  0  0
  1  5  2  0  0  0  0
  2  4  2  0  0  0  0
  2  5  1  0  0  0  0
  3  6  2  0  0  0  0
  4  6  1  0  0  0  0
  5 39  1  0  0  0  0
  6 46  1  0  0  0  0
  7  9  2  0  0  0  0
  7 19  1  0  0  0  0
  7 20  1  0  0  0  0
  8 10  2  0  0  0  0
  8 37  1  0  0  0  0
  9 11  1  0  0  0  0
  9 38  1  0  0  0  0
 10 29  1  0  0  0  0
 10 30  1  0  0  0  0
 11 40  1  0  0  0  0
 11 41  2  0  0  0  0
 12 31  1  0  0  0  0
 12 42  2  0  0  0  0
 12 45  1  0  0  0  0
 13 15  1  0  0  0  0
 13 21  1  0  0  0  0
 14 16  1  0  0  0  0
 14 24  1  0  0  0  0
 15 27  1  0  0  0  0
 16 26  1  0  0  0  0
 17 19  1  0  0  0  0
 17 25  1  0  0  0  0
 18 20  1  0  0  0  0
 18 28  1  0  0  0  0
 19 28  1  0  0  0  0
 20 45  1  0  0  0  0
 21 23  1  0  0  0  0
 21 26  1  0  0  0  0
 22 25  1  0  0  0  0
 22 26  1  0  0  0  0
 22 27  1  0  0  0  0
 23 24  1  0  0  0  0
 23 32  1  0  0  0  0
 24 43  1  0  0  0  0
 25 44  1  0  0  0  0
 26 33  1  0  0  0  0
 27 28  1  0  0  0  0
 27 34  1  0  0  0  0
 28 35  1  0  0  0  0
 36 39  1  0  0  0  0
 37 38  1  0  0  0  0
 39 40  1  0  0  0  0
  1 47  1  0  0  0  0
  2 48  1  0  0  0  0
  3 49  1  0  0  0  0
  4 50  1  0  0  0  0
  8 51  1  0  0  0  0
 13 52  1  0  0  0  0
 13 53  1  0  0  0  0
 14 54  1  0  0  0  0
 14 55  1  0  0  0  0
 15 56  1  0  0  0  0
 15 57  1  0  0  0  0
 16 58  1  0  0  0  0
 16 59  1  0  0  0  0
 17 60  1  0  0  0  0
 17 61  1  0  0  0  0
 18 62  1  0  0  0  0
 18 63  1  0  0  0  0
 19 64  1  0  0  0  0
 20 65  1  0  0  0  0
 21 66  1  0  0  0  0
 22 67  1  0  0  0  0
 23 68  1  0  0  0  0
 24 69  1  0  0  0  0
 25 70  1  0  0  0  0
 29 71  1  0  0  0  0
 29 72  1  0  0  0  0
 29 73  1  0  0  0  0
 30 74  1  0  0  0  0
 30 75  1  0  0  0  0
 30 76  1  0  0  0  0
 31 77  1  0  0  0  0
 31 78  1  0  0  0  0
 31 79  1  0  0  0  0
 32 80  1  0  0  0  0
 32 81  1  0  0  0  0
 32 82  1  0  0  0  0
 33 83  1  0  0  0  0
 33 84  1  0  0  0  0
 33 85  1  0  0  0  0
 34 86  1  0  0  0  0
 34 87  1  0  0  0  0
 34 88  1  0  0  0  0
 35 89  1  0  0  0  0
 35 90  1  0  0  0  0
 35 91  1  0  0  0  0
 36 92  1  0  0  0  0
 36 93  1  0  0  0  0
 36 94  1  0  0  0  0
 37 95  1  0  0  0  0
 37 96  1  0  0  0  0
 38 97  1  0  0  0  0
 38 98  1  0  0  0  0
 39 99  1  0  0  0  0
 40100  1  0  0  0  0
 43101  1  0  0  0  0
 44102  1  0  0  0  0
M  END
> <SMILES>
CC(NC(=O)/C(=C/1\[C@H](C[C@@]2(C)[C@H]1C[C@@H](O)[C@H]1[C@@]3(C)CC[C@@H](O)[C@@H](C)[C@@H]3CC[C@@]12C)OC(=O)C)CCC=C(C)C)c1ccc(cc1)F

> <FORMATTED_ID>
H3D-005475

> <MOLFORMULA>
C39H56FNO5

> <Exact Mass>
637.41

> <XLogP>
7.65

> <TPSA_NOPS>
95.9

> <s_m_source_file>
ligprep_h3d.sdf

> <i_m_source_file_index>
2386

> <i_lp_mmshare_version>
55123

> <i_f3d_flags>
0

> <s_epik_input>
W2NIXTFbY0hdYyhGKVtjSF1bY0hdYzFbQ0BIXShbQ0gzXSlbTkhdQyg9TykvQyhbQ0gyXVtDSDJdW0NIXT1DKFtDSDNdKVtDSDNdKT1DKFxbQ0BIXShbQ0gyXTIpT0MoPU8pW0NIM10pW0NAQEhdKFtDQF0yM1tDSDNdKVtDSDJdW0NAQEhdKFtPSF0pW0NASF00W0NAXTUoW0NIM10pW0NASF0oW0NASF0oW0NIM10pW0NASF0oW09IXSlbQ0gyXVtDSDJdNSlbQ0gyXVtDSDJdW0NAXTM0W0NIM10=

> <s_epik_cmdline>
J2VwaWtfcHl0aG9uJywgJy1waHQnLCAnMC41JywgJy1waCcsICc3LjUnLCAnLXRuJywgJzgnLCAnLW1hJywgJzUwMCcsICctaW1hZScsICc8aW5maWxlLm1hZT4nLCAnLW9tYWUnLCAnPG91dGZpbGUubWFlPic=

> <r_lp_tautomer_probability>
1

> <r_epik_Ionization_Penalty>
1.59239e-06

> <r_epik_Ionization_Penalty_Charging>
0

> <r_epik_Ionization_Penalty_Neutral>
1.59239e-06

> <r_epik_State_Penalty>
-0

> <r_epik_Charging_Adjusted_Penalty>
0

> <i_epik_Tot_Q>
0

> <i_epik_Tot_abs_Q>
0

> <s_epik_Chemistry_Notes>
This compound has an ester and may undergo hydrolysis at high or low pH.

> <s_lp_Force_Field>
S-OPLS

> <r_lp_Energy>
85.1845

> <b_lp_Chiralities_Consistent>
1

> <s_lp_Variant>
ligprep_h3d.sdf:2386-1

> <ROCS_ShapeQuery>
_7L13

> <ROCS_TanimotoCombo>
0.682 

> <ROCS_ShapeTanimoto>
0.598 

> <ROCS_ColorTanimoto>
0.084 

> <ROCS_RefTversky>
0.820 

> <ROCS_RefColorTversky>
0.193 

> <ROCS_RefTverskyCombo>
1.013 

> <ROCS_FitTversky>
0.688 

> <ROCS_FitColorTversky>
0.129 

> <ROCS_FitTverskyCombo>
0.817 

> <ROCS_ColorScore>
-1.782

> <ROCS_Overlap>
1376.202

> <ROCS_Rank>
53                  

$$$$
ligprep_h3d.sdf:2380_1761
  -OEChem-08212117123D

102106  0     1  0  0  0  0  0999 V2000
  -23.4744   -3.8499  -23.7628 C   0  0  0  0  0  0  0  0  0  0  0  0
  -25.6297   -4.5937  -24.5617 C   0  0  0  0  0  0  0  0  0  0  0  0
  -23.6392   -4.6133  -22.6071 C   0  0  0  0  0  0  0  0  0  0  0  0
  -25.7946   -5.3572  -23.4060 C   0  0  0  0  0  0  0  0  0  0  0  0
  -24.4696   -3.8400  -24.7400 C   0  0  0  0  0  0  0  0  0  0  0  0
  -24.7993   -5.3670  -22.4287 C   0  0  0  0  0  0  0  0  0  0  0  0
  -22.1929   -3.9670  -30.1497 C   0  0  0  0  0  0  0  0  0  0  0  0
  -19.4392   -5.3561  -26.2253 C   0  0  0  0  0  0  0  0  0  0  0  0
  -21.9937   -4.0298  -28.8279 C   0  0  0  0  0  0  0  0  0  0  0  0
  -18.1245   -5.1644  -26.0053 C   0  0  0  0  0  0  0  0  0  0  0  0
  -22.7407   -3.0985  -27.9264 C   0  0  0  0  0  0  0  0  0  0  0  0
  -23.7741   -0.7147  -30.5790 C   0  0  0  0  0  0  0  0  0  0  0  0
  -19.6761   -4.0957  -35.9250 C   0  0  0  0  0  0  0  0  0  0  0  0
  -18.6962   -8.4199  -36.0743 C   0  0  0  0  0  0  0  0  0  0  0  0
  -20.7775   -3.6869  -34.9314 C   0  0  0  0  0  0  0  0  0  0  0  0
  -19.3378   -7.7786  -34.8313 C   0  0  0  0  0  0  0  0  0  0  0  0
  -20.2332   -5.5769  -30.9228 C   0  0  0  0  0  0  0  0  0  0  0  0
  -22.7862   -3.1656  -32.3521 C   0  0  0  0  0  0  0  0  0  0  0  0
  -21.5336   -4.8265  -31.2005 C   0  0  2  0  0  0  0  0  0  0  0  0
  -23.0823   -2.9585  -30.8501 C   0  0  2  0  0  0  0  0  0  0  0  0
  -19.5860   -5.6124  -36.0622 C   0  0  1  0  0  0  0  0  0  0  0  0
  -19.7409   -5.5334  -33.4574 C   0  0  1  0  0  0  0  0  0  0  0  0
  -18.8207   -6.1605  -37.2973 C   0  0  1  0  0  0  0  0  0  0  0  0
  -19.0279   -7.6953  -37.3812 C   0  0  2  0  0  0  0  0  0  0  0  0
  -19.8185   -6.3962  -32.1618 C   0  0  2  0  0  0  0  0  0  0  0  0
  -19.0819   -6.2531  -34.7231 C   0  0  1  0  0  0  0  0  0  0  0  0
  -21.0406   -4.6690  -33.7357 C   0  0  1  0  0  0  0  0  0  0  0  0
  -21.3912   -3.8485  -32.4007 C   0  0  1  0  0  0  0  0  0  0  0  0
  -17.2976   -6.2444  -25.3590 C   0  0  0  0  0  0  0  0  0  0  0  0
  -17.3546   -3.9206  -26.3479 C   0  0  0  0  0  0  0  0  0  0  0  0
  -23.5950    0.3650  -29.5552 C   0  0  0  0  0  0  0  0  0  0  0  0
  -19.2509   -5.4898  -38.6086 C   0  0  0  0  0  0  0  0  0  0  0  0
  -17.5387   -6.0568  -34.5394 C   0  0  0  0  0  0  0  0  0  0  0  0
  -22.2423   -5.5805  -34.1337 C   0  0  0  0  0  0  0  0  0  0  0  0
  -20.3196   -2.7404  -32.0954 C   0  0  0  0  0  0  0  0  0  0  0  0
  -25.6201   -2.5207  -26.5643 C   0  0  0  0  0  0  0  0  0  0  0  0
  -20.4228   -4.4112  -26.8595 C   0  0  0  0  0  0  0  0  0  0  0  0
  -20.9758   -4.9423  -28.1892 C   0  0  0  0  0  0  0  0  0  0  0  0
  -24.2911   -3.0125  -25.9946 C   0  0  2  0  0  0  0  0  0  0  0  0
  -23.5444   -3.7356  -26.9978 N   0  0  0  0  0  0  0  0  0  0  0  0
  -22.5715   -1.8843  -28.0065 O   0  0  0  0  0  0  0  0  0  0  0  0
  -24.7010   -0.7555  -31.3768 O   0  0  0  0  0  0  0  0  0  0  0  0
  -20.3858   -8.0076  -37.7017 O   0  0  0  0  0  0  0  0  0  0  0  0
  -20.7399   -7.4711  -32.3226 O   0  0  0  0  0  0  0  0  0  0  0  0
  -22.7583   -1.6265  -30.4798 O   0  0  0  0  0  0  0  0  0  0  0  0
  -24.9565   -6.1023  -21.3202 F   0  0  0  0  0  0  0  0  0  0  0  0
  -22.5674   -3.2653  -23.8925 H   0  0  0  0  0  0  0  0  0  0  0  0
  -26.4104   -4.5924  -25.3178 H   0  0  0  0  0  0  0  0  0  0  0  0
  -22.8642   -4.6216  -21.8466 H   0  0  0  0  0  0  0  0  0  0  0  0
  -26.6978   -5.9438  -23.2666 H   0  0  0  0  0  0  0  0  0  0  0  0
  -19.8728   -6.3092  -25.9238 H   0  0  0  0  0  0  0  0  0  0  0  0
  -19.9078   -3.6153  -36.8809 H   0  0  0  0  0  0  0  0  0  0  0  0
  -18.7150   -3.6788  -35.6048 H   0  0  0  0  0  0  0  0  0  0  0  0
  -17.6089   -8.4639  -35.9488 H   0  0  0  0  0  0  0  0  0  0  0  0
  -19.0400   -9.4604  -36.1337 H   0  0  0  0  0  0  0  0  0  0  0  0
  -20.5229   -2.6807  -34.5920 H   0  0  0  0  0  0  0  0  0  0  0  0
  -21.7097   -3.5470  -35.4951 H   0  0  0  0  0  0  0  0  0  0  0  0
  -20.4156   -7.9750  -34.8609 H   0  0  0  0  0  0  0  0  0  0  0  0
  -18.9434   -8.3013  -33.9523 H   0  0  0  0  0  0  0  0  0  0  0  0
  -19.4306   -4.8841  -30.6463 H   0  0  0  0  0  0  0  0  0  0  0  0
  -20.3791   -6.2543  -30.0726 H   0  0  0  0  0  0  0  0  0  0  0  0
  -23.5627   -3.8216  -32.7581 H   0  0  0  0  0  0  0  0  0  0  0  0
  -22.8088   -2.2301  -32.9211 H   0  0  0  0  0  0  0  0  0  0  0  0
  -22.2946   -5.5868  -31.4170 H   0  0  0  0  0  0  0  0  0  0  0  0
  -24.1407   -3.1382  -30.6407 H   0  0  0  0  0  0  0  0  0  0  0  0
  -20.6161   -5.9363  -36.2388 H   0  0  0  0  0  0  0  0  0  0  0  0
  -18.9922   -4.7772  -33.1951 H   0  0  0  0  0  0  0  0  0  0  0  0
  -17.7496   -5.9592  -37.1896 H   0  0  0  0  0  0  0  0  0  0  0  0
  -18.4053   -8.1134  -38.1813 H   0  0  0  0  0  0  0  0  0  0  0  0
  -18.8376   -6.8423  -31.9620 H   0  0  0  0  0  0  0  0  0  0  0  0
  -16.8775   -6.9079  -26.1223 H   0  0  0  0  0  0  0  0  0  0  0  0
  -16.4633   -5.8400  -24.7760 H   0  0  0  0  0  0  0  0  0  0  0  0
  -17.9170   -6.8413  -24.6814 H   0  0  0  0  0  0  0  0  0  0  0  0
  -17.3346   -3.1802  -25.5463 H   0  0  0  0  0  0  0  0  0  0  0  0
  -17.7929   -3.4392  -27.2285 H   0  0  0  0  0  0  0  0  0  0  0  0
  -16.3142   -4.1747  -26.5778 H   0  0  0  0  0  0  0  0  0  0  0  0
  -24.1052    0.0869  -28.6297 H   0  0  0  0  0  0  0  0  0  0  0  0
  -23.9845    1.3104  -29.9411 H   0  0  0  0  0  0  0  0  0  0  0  0
  -22.5293    0.4893  -29.3420 H   0  0  0  0  0  0  0  0  0  0  0  0
  -20.3122   -5.6570  -38.7695 H   0  0  0  0  0  0  0  0  0  0  0  0
  -18.6878   -5.9153  -39.4344 H   0  0  0  0  0  0  0  0  0  0  0  0
  -19.0572   -4.4224  -38.5497 H   0  0  0  0  0  0  0  0  0  0  0  0
  -17.3472   -5.0006  -34.4628 H   0  0  0  0  0  0  0  0  0  0  0  0
  -17.0479   -6.4769  -35.4000 H   0  0  0  0  0  0  0  0  0  0  0  0
  -17.2458   -6.5688  -33.6392 H   0  0  0  0  0  0  0  0  0  0  0  0
  -22.4330   -6.2606  -33.3191 H   0  0  0  0  0  0  0  0  0  0  0  0
  -21.9732   -6.1211  -35.0269 H   0  0  0  0  0  0  0  0  0  0  0  0
  -23.0982   -4.9498  -34.3126 H   0  0  0  0  0  0  0  0  0  0  0  0
  -19.3519   -3.2065  -32.1276 H   0  0  0  0  0  0  0  0  0  0  0  0
  -20.5298   -2.3456  -31.1184 H   0  0  0  0  0  0  0  0  0  0  0  0
  -20.4124   -1.9818  -32.8509 H   0  0  0  0  0  0  0  0  0  0  0  0
  -26.2751   -3.3609  -26.8195 H   0  0  0  0  0  0  0  0  0  0  0  0
  -26.1424   -1.8931  -25.8334 H   0  0  0  0  0  0  0  0  0  0  0  0
  -25.4803   -1.9150  -27.4668 H   0  0  0  0  0  0  0  0  0  0  0  0
  -21.2450   -4.1497  -26.1878 H   0  0  0  0  0  0  0  0  0  0  0  0
  -19.8946   -3.4695  -27.0570 H   0  0  0  0  0  0  0  0  0  0  0  0
  -20.1409   -5.0888  -28.8863 H   0  0  0  0  0  0  0  0  0  0  0  0
  -21.4067   -5.9396  -28.0294 H   0  0  0  0  0  0  0  0  0  0  0  0
  -23.6825   -2.1305  -25.7599 H   0  0  0  0  0  0  0  0  0  0  0  0
  -23.6120   -4.7487  -27.0224 H   0  0  0  0  0  0  0  0  0  0  0  0
  -20.4277   -8.9703  -37.7980 H   0  0  0  0  0  0  0  0  0  0  0  0
  -20.6876   -8.0036  -31.5137 H   0  0  0  0  0  0  0  0  0  0  0  0
  1  3  1  0  0  0  0
  1  5  2  0  0  0  0
  2  4  2  0  0  0  0
  2  5  1  0  0  0  0
  3  6  2  0  0  0  0
  4  6  1  0  0  0  0
  5 39  1  0  0  0  0
  6 46  1  0  0  0  0
  7  9  2  0  0  0  0
  7 19  1  0  0  0  0
  7 20  1  0  0  0  0
  8 10  2  0  0  0  0
  8 37  1  0  0  0  0
  9 11  1  0  0  0  0
  9 38  1  0  0  0  0
 10 29  1  0  0  0  0
 10 30  1  0  0  0  0
 11 40  1  0  0  0  0
 11 41  2  0  0  0  0
 12 31  1  0  0  0  0
 12 42  2  0  0  0  0
 12 45  1  0  0  0  0
 13 15  1  0  0  0  0
 13 21  1  0  0  0  0
 14 16  1  0  0  0  0
 14 24  1  0  0  0  0
 15 27  1  0  0  0  0
 16 26  1  0  0  0  0
 17 19  1  0  0  0  0
 17 25  1  0  0  0  0
 18 20  1  0  0  0  0
 18 28  1  0  0  0  0
 19 28  1  0  0  0  0
 20 45  1  0  0  0  0
 21 23  1  0  0  0  0
 21 26  1  0  0  0  0
 22 25  1  0  0  0  0
 22 26  1  0  0  0  0
 22 27  1  0  0  0  0
 23 24  1  0  0  0  0
 23 32  1  0  0  0  0
 24 43  1  0  0  0  0
 25 44  1  0  0  0  0
 26 33  1  0  0  0  0
 27 28  1  0  0  0  0
 27 34  1  0  0  0  0
 28 35  1  0  0  0  0
 36 39  1  0  0  0  0
 37 38  1  0  0  0  0
 39 40  1  0  0  0  0
  1 47  1  0  0  0  0
  2 48  1  0  0  0  0
  3 49  1  0  0  0  0
  4 50  1  0  0  0  0
  8 51  1  0  0  0  0
 13 52  1  0  0  0  0
 13 53  1  0  0  0  0
 14 54  1  0  0  0  0
 14 55  1  0  0  0  0
 15 56  1  0  0  0  0
 15 57  1  0  0  0  0
 16 58  1  0  0  0  0
 16 59  1  0  0  0  0
 17 60  1  0  0  0  0
 17 61  1  0  0  0  0
 18 62  1  0  0  0  0
 18 63  1  0  0  0  0
 19 64  1  0  0  0  0
 20 65  1  0  0  0  0
 21 66  1  0  0  0  0
 22 67  1  0  0  0  0
 23 68  1  0  0  0  0
 24 69  1  0  0  0  0
 25 70  1  0  0  0  0
 29 71  1  0  0  0  0
 29 72  1  0  0  0  0
 29 73  1  0  0  0  0
 30 74  1  0  0  0  0
 30 75  1  0  0  0  0
 30 76  1  0  0  0  0
 31 77  1  0  0  0  0
 31 78  1  0  0  0  0
 31 79  1  0  0  0  0
 32 80  1  0  0  0  0
 32 81  1  0  0  0  0
 32 82  1  0  0  0  0
 33 83  1  0  0  0  0
 33 84  1  0  0  0  0
 33 85  1  0  0  0  0
 34 86  1  0  0  0  0
 34 87  1  0  0  0  0
 34 88  1  0  0  0  0
 35 89  1  0  0  0  0
 35 90  1  0  0  0  0
 35 91  1  0  0  0  0
 36 92  1  0  0  0  0
 36 93  1  0  0  0  0
 36 94  1  0  0  0  0
 37 95  1  0  0  0  0
 37 96  1  0  0  0  0
 38 97  1  0  0  0  0
 38 98  1  0  0  0  0
 39 99  1  0  0  0  0
 40100  1  0  0  0  0
 43101  1  0  0  0  0
 44102  1  0  0  0  0
M  END
> <SMILES>
C[C@H](NC(=O)/C(=C/1\[C@H](C[C@@]2(C)[C@H]1C[C@@H](O)[C@H]1[C@@]3(C)CC[C@@H](O)[C@@H](C)[C@@H]3CC[C@@]12C)OC(=O)C)CCC=C(C)C)c1ccc(cc1)F

> <FORMATTED_ID>
H3D-005469

> <MOLFORMULA>
C39H56FNO5

> <Exact Mass>
637.41

> <XLogP>
7.65

> <TPSA_NOPS>
95.9

> <s_m_source_file>
ligprep_h3d.sdf

> <i_m_source_file_index>
2380

> <i_lp_mmshare_version>
55123

> <i_f3d_flags>
0

> <s_epik_input>
W2NIXTFbY0hdYyhGKVtjSF1bY0hdYzFbQ0BIXShbQ0gzXSlbTkhdQyg9TykvQyhbQ0gyXVtDSDJdW0NIXT1DKFtDSDNdKVtDSDNdKT1DKFxbQ0BIXShbQ0gyXTIpT0MoPU8pW0NIM10pW0NAQEhdKFtDQF0yM1tDSDNdKVtDSDJdW0NAQEhdKFtPSF0pW0NASF00W0NAXTUoW0NIM10pW0NASF0oW0NASF0oW0NIM10pW0NASF0oW09IXSlbQ0gyXVtDSDJdNSlbQ0gyXVtDSDJdW0NAXTM0W0NIM10=

> <s_epik_cmdline>
J2VwaWtfcHl0aG9uJywgJy1waHQnLCAnMC41JywgJy1waCcsICc3LjUnLCAnLXRuJywgJzgnLCAnLW1hJywgJzUwMCcsICctaW1hZScsICc8aW5maWxlLm1hZT4nLCAnLW9tYWUnLCAnPG91dGZpbGUubWFlPic=

> <r_lp_tautomer_probability>
1

> <r_epik_Ionization_Penalty>
1.59239e-06

> <r_epik_Ionization_Penalty_Charging>
0

> <r_epik_Ionization_Penalty_Neutral>
1.59239e-06

> <r_epik_State_Penalty>
-0

> <r_epik_Charging_Adjusted_Penalty>
0

> <i_epik_Tot_Q>
0

> <i_epik_Tot_abs_Q>
0

> <s_epik_Chemistry_Notes>
This compound has an ester and may undergo hydrolysis at high or low pH.

> <s_lp_Force_Field>
S-OPLS

> <r_lp_Energy>
85.1845

> <b_lp_Chiralities_Consistent>
1

> <s_lp_Variant>
ligprep_h3d.sdf:2380-1

> <ROCS_ShapeQuery>
_7L13

> <ROCS_TanimotoCombo>
0.681 

> <ROCS_ShapeTanimoto>
0.597 

> <ROCS_ColorTanimoto>
0.084 

> <ROCS_RefTversky>
0.820 

> <ROCS_RefColorTversky>
0.193 

> <ROCS_RefTverskyCombo>
1.012 

> <ROCS_FitTversky>
0.688 

> <ROCS_FitColorTversky>
0.129 

> <ROCS_FitTverskyCombo>
0.817 

> <ROCS_ColorScore>
-1.782

> <ROCS_Overlap>
1375.833

> <ROCS_Rank>
54                  

$$$$
ligprep_h3d.sdf:5020_1358
  -OEChem-08212117123D

 68 72  0     1  0  0  0  0  0999 V2000
  -20.8934   -5.8769  -35.9638 C   0  0  0  0  0  0  0  0  0  0  0  0
  -20.2570   -7.1408  -34.0056 C   0  0  0  0  0  0  0  0  0  0  0  0
  -19.9527   -6.5755  -36.7205 C   0  0  0  0  0  0  0  0  0  0  0  0
  -19.3162   -7.8394  -34.7623 C   0  0  0  0  0  0  0  0  0  0  0  0
  -23.2529   -4.2733  -24.2997 C   0  0  0  0  0  0  0  0  0  0  0  0
  -25.5210   -4.6882  -25.0213 C   0  0  0  0  0  0  0  0  0  0  0  0
  -23.6679   -4.3189  -22.9688 C   0  0  0  0  0  0  0  0  0  0  0  0
  -25.9360   -4.7339  -23.6904 C   0  0  0  0  0  0  0  0  0  0  0  0
  -18.2280   -6.1093  -25.6498 C   0  0  0  0  0  0  0  0  0  0  0  0
  -17.2929   -4.0403  -26.4753 C   0  0  0  0  0  0  0  0  0  0  0  0
  -16.2816   -5.1535  -24.5845 C   0  0  0  0  0  0  0  0  0  0  0  0
  -21.0455   -6.1595  -34.6064 C   0  0  0  0  0  0  0  0  0  0  0  0
  -18.2534   -5.0486  -26.5552 C   0  0  0  0  0  0  0  0  0  0  0  0
  -19.1641   -7.5568  -36.1197 C   0  0  0  0  0  0  0  0  0  0  0  0
  -24.1794   -4.4579  -25.3260 C   0  0  0  0  0  0  0  0  0  0  0  0
  -25.0095   -4.5492  -22.6642 C   0  0  0  0  0  0  0  0  0  0  0  0
  -17.2422   -6.1618  -24.6644 C   0  0  0  0  0  0  0  0  0  0  0  0
  -16.3070   -4.0927  -25.4899 C   0  0  0  0  0  0  0  0  0  0  0  0
  -22.3757   -3.6949  -32.0103 C   0  0  0  0  0  0  0  0  0  0  0  0
  -22.7491   -3.7813  -29.5605 C   0  0  0  0  0  0  0  0  0  0  0  0
  -19.9533   -6.0242  -28.2299 C   0  0  0  0  0  0  0  0  0  0  0  0
  -19.6628   -3.9444  -28.4096 C   0  0  0  0  0  0  0  0  0  0  0  0
  -20.8382   -4.9823  -30.4568 C   0  0  0  0  0  0  0  0  0  0  0  0
  -22.2225   -4.7180  -28.4815 C   0  0  1  0  0  0  0  0  0  0  0  0
  -20.7649   -4.9099  -28.9291 C   0  0  0  0  0  0  0  0  0  0  0  0
  -22.0628   -5.4039  -33.7868 C   0  0  0  0  0  0  0  0  0  0  0  0
  -22.4213   -4.1841  -27.0752 C   0  0  0  0  0  0  0  0  0  0  0  0
  -21.4970   -4.1375  -33.1531 C   0  0  1  0  0  0  0  0  0  0  0  0
  -19.2436   -4.9959  -27.5460 N   0  0  0  0  0  0  0  0  0  0  0  0
  -21.9948   -4.1391  -30.7544 N   0  0  0  0  0  0  0  0  0  0  0  0
  -18.2142   -8.2647  -36.8848 N   0  0  0  0  0  0  0  0  0  0  0  0
  -23.7638   -4.4122  -26.6587 N   0  0  0  0  0  0  0  0  0  0  0  0
  -21.4507   -3.0392  -34.1499 N   0  3  0  0  0  0  0  0  0  0  0  0
  -23.3568   -2.9796  -32.2204 O   0  0  0  0  0  0  0  0  0  0  0  0
  -25.4081   -4.5931  -21.3861 F   0  0  0  0  0  0  0  0  0  0  0  0
  -17.2171   -7.1815  -23.7963 F   0  0  0  0  0  0  0  0  0  0  0  0
  -15.3835   -3.1255  -25.4144 F   0  0  0  0  0  0  0  0  0  0  0  0
  -21.5028   -5.1134  -36.4398 H   0  0  0  0  0  0  0  0  0  0  0  0
  -20.3673   -7.3665  -32.9484 H   0  0  0  0  0  0  0  0  0  0  0  0
  -19.8412   -6.3465  -37.7772 H   0  0  0  0  0  0  0  0  0  0  0  0
  -18.7066   -8.6015  -34.2836 H   0  0  0  0  0  0  0  0  0  0  0  0
  -22.2050   -4.0935  -24.5258 H   0  0  0  0  0  0  0  0  0  0  0  0
  -26.2515   -4.8331  -25.8131 H   0  0  0  0  0  0  0  0  0  0  0  0
  -22.9468   -4.1755  -22.1696 H   0  0  0  0  0  0  0  0  0  0  0  0
  -26.9804   -4.9129  -23.4526 H   0  0  0  0  0  0  0  0  0  0  0  0
  -18.9710   -6.9006  -25.7037 H   0  0  0  0  0  0  0  0  0  0  0  0
  -17.3028   -3.2097  -27.1763 H   0  0  0  0  0  0  0  0  0  0  0  0
  -15.5135   -5.1957  -23.8179 H   0  0  0  0  0  0  0  0  0  0  0  0
  -23.8016   -3.9868  -29.7779 H   0  0  0  0  0  0  0  0  0  0  0  0
  -22.6414   -2.7198  -29.3289 H   0  0  0  0  0  0  0  0  0  0  0  0
  -20.5151   -6.6670  -27.5391 H   0  0  0  0  0  0  0  0  0  0  0  0
  -19.3069   -6.6447  -28.8608 H   0  0  0  0  0  0  0  0  0  0  0  0
  -18.8995   -3.6491  -29.1316 H   0  0  0  0  0  0  0  0  0  0  0  0
  -20.0244   -3.0730  -27.8567 H   0  0  0  0  0  0  0  0  0  0  0  0
  -19.9615   -4.5273  -30.9297 H   0  0  0  0  0  0  0  0  0  0  0  0
  -20.9796   -5.9927  -30.8510 H   0  0  0  0  0  0  0  0  0  0  0  0
  -22.7863   -5.7012  -28.5547 H   0  0  0  0  0  0  0  0  0  0  0  0
  -22.4895   -6.0634  -33.0187 H   0  0  0  0  0  0  0  0  0  0  0  0
  -22.9070   -5.1513  -34.4431 H   0  0  0  0  0  0  0  0  0  0  0  0
  -21.7235   -4.7126  -26.4282 H   0  0  0  0  0  0  0  0  0  0  0  0
  -22.2033   -3.1179  -27.1015 H   0  0  0  0  0  0  0  0  0  0  0  0
  -20.4841   -4.2640  -32.7699 H   0  0  0  0  0  0  0  0  0  0  0  0
  -18.1482   -8.0871  -37.8668 H   0  0  0  0  0  0  0  0  0  0  0  0
  -17.6886   -8.9978  -36.4531 H   0  0  0  0  0  0  0  0  0  0  0  0
  -24.4874   -4.5531  -27.3686 H   0  0  0  0  0  0  0  0  0  0  0  0
  -22.3144   -3.0084  -34.7018 H   0  0  0  0  0  0  0  0  0  0  0  0
  -20.6656   -3.1657  -34.7976 H   0  0  0  0  0  0  0  0  0  0  0  0
  -21.3372   -2.1302  -33.6887 H   0  0  0  0  0  0  0  0  0  0  0  0
  1  3  1  0  0  0  0
  1 12  2  0  0  0  0
  2  4  2  0  0  0  0
  2 12  1  0  0  0  0
  3 14  2  0  0  0  0
  4 14  1  0  0  0  0
  5  7  1  0  0  0  0
  5 15  2  0  0  0  0
  6  8  2  0  0  0  0
  6 15  1  0  0  0  0
  7 16  2  0  0  0  0
  8 16  1  0  0  0  0
  9 13  2  0  0  0  0
  9 17  1  0  0  0  0
 10 13  1  0  0  0  0
 10 18  2  0  0  0  0
 11 17  2  0  0  0  0
 11 18  1  0  0  0  0
 12 26  1  0  0  0  0
 13 29  1  0  0  0  0
 14 31  1  0  0  0  0
 15 32  1  0  0  0  0
 16 35  1  0  0  0  0
 17 36  1  0  0  0  0
 18 37  1  0  0  0  0
 19 28  1  0  0  0  0
 19 30  1  0  0  0  0
 19 34  2  0  0  0  0
 20 24  1  0  0  0  0
 20 30  1  0  0  0  0
 21 25  1  0  0  0  0
 21 29  1  0  0  0  0
 22 25  1  0  0  0  0
 22 29  1  0  0  0  0
 23 25  1  0  0  0  0
 23 30  1  0  0  0  0
 24 25  1  0  0  0  0
 24 27  1  0  0  0  0
 26 28  1  0  0  0  0
 27 32  1  0  0  0  0
 28 33  1  0  0  0  0
  1 38  1  0  0  0  0
  2 39  1  0  0  0  0
  3 40  1  0  0  0  0
  4 41  1  0  0  0  0
  5 42  1  0  0  0  0
  6 43  1  0  0  0  0
  7 44  1  0  0  0  0
  8 45  1  0  0  0  0
  9 46  1  0  0  0  0
 10 47  1  0  0  0  0
 11 48  1  0  0  0  0
 20 49  1  0  0  0  0
 20 50  1  0  0  0  0
 21 51  1  0  0  0  0
 21 52  1  0  0  0  0
 22 53  1  0  0  0  0
 22 54  1  0  0  0  0
 23 55  1  0  0  0  0
 23 56  1  0  0  0  0
 24 57  1  0  0  0  0
 26 58  1  0  0  0  0
 26 59  1  0  0  0  0
 27 60  1  0  0  0  0
 27 61  1  0  0  0  0
 28 62  1  0  0  0  0
 31 63  1  0  0  0  0
 31 64  1  0  0  0  0
 32 65  1  0  0  0  0
 33 66  1  0  0  0  0
 33 67  1  0  0  0  0
 33 68  1  0  0  0  0
M  CHG  1  33   1
M  END
> <SMILES>
N[C@H](Cc1ccc(cc1)N)C(=O)N1CC(CNc2ccc(cc2)F)C2(C1)CN(C2)c1cc(cc(c1)F)F

> <FORMATTED_ID>
H3D-009160

> <MOLFORMULA>
C28H30F3N5O

> <Exact Mass>
509.24

> <XLogP>
2.89

> <TPSA_NOPS>
87.6

> <s_m_source_file>
ligprep_h3d.sdf

> <i_m_source_file_index>
5020

> <i_lp_mmshare_version>
55123

> <i_f3d_flags>
0

> <s_epik_input>
W2NIXTFbY0hdYyhbTkgyXSlbY0hdW2NIXWMxW0NIMl1bQ0BASF0oW05IMl0pQyg9TylOKFtDSDJdMilbQ0gyXVtDQEhdKFtDSDJdW05IXWMzW2NIXVtjSF1jKEYpW2NIXVtjSF0zKUMyNFtDSDJdTihbQ0gyXTQpYzVbY0hdYyhGKVtjSF1jKEYpW2NIXTU=

> <s_epik_cmdline>
J2VwaWtfcHl0aG9uJywgJy1waHQnLCAnMC41JywgJy1waCcsICc3LjUnLCAnLXRuJywgJzgnLCAnLW1hJywgJzUwMCcsICctaW1hZScsICc8aW5maWxlLm1hZT4nLCAnLW9tYWUnLCAnPG91dGZpbGUubWFlPic=

> <r_epik_Ionization_Penalty>
0.38487

> <r_epik_Ionization_Penalty_Charging>
0.382744

> <r_epik_Ionization_Penalty_Neutral>
0.00212613

> <r_epik_State_Penalty>
0.38092

> <r_epik_Charging_Adjusted_Penalty>
0.763664

> <i_epik_Tot_Q>
1

> <i_epik_Tot_abs_Q>
1

> <s_lp_Force_Field>
S-OPLS

> <r_lp_Energy>
45.0663

> <b_lp_Chiralities_Consistent>
1

> <s_lp_Variant>
ligprep_h3d.sdf:5020-1

> <ROCS_ShapeQuery>
_7L13

> <ROCS_TanimotoCombo>
0.742 

> <ROCS_ShapeTanimoto>
0.687 

> <ROCS_ColorTanimoto>
0.056 

> <ROCS_RefTversky>
0.819 

> <ROCS_RefColorTversky>
0.116 

> <ROCS_RefTverskyCombo>
0.935 

> <ROCS_FitTversky>
0.809 

> <ROCS_FitColorTversky>
0.097 

> <ROCS_FitTverskyCombo>
0.906 

> <ROCS_ColorScore>
-1.055

> <ROCS_Overlap>
1360.794

> <ROCS_Rank>
55                  

$$$$
ligprep_h3d.sdf:1142_1548
  -OEChem-08212117123D

 64 68  0     0  0  0  0  0  0999 V2000
  -20.1809   -3.7998  -32.3724 C   0  0  0  0  0  0  0  0  0  0  0  0
  -20.5330   -6.1816  -32.1720 C   0  0  0  0  0  0  0  0  0  0  0  0
  -19.6593   -3.9846  -33.6528 C   0  0  0  0  0  0  0  0  0  0  0  0
  -20.0115   -6.3664  -33.4525 C   0  0  0  0  0  0  0  0  0  0  0  0
  -16.7037   -5.6886  -26.7355 C   0  0  0  0  0  0  0  0  0  0  0  0
  -23.0564   -4.3042  -28.8590 C   0  0  0  0  0  0  0  0  0  0  0  0
  -20.6183   -4.3811  -25.4944 C   0  0  0  0  0  0  0  0  0  0  0  0
  -16.6466   -4.2867  -26.8499 C   0  0  0  0  0  0  0  0  0  0  0  0
  -20.8690   -4.5462  -27.8934 C   0  0  0  0  0  0  0  0  0  0  0  0
  -20.6177   -4.8983  -31.6320 C   0  0  0  0  0  0  0  0  0  0  0  0
  -21.1609   -4.7057  -30.2977 C   0  0  0  0  0  0  0  0  0  0  0  0
  -19.5747   -5.2679  -34.1929 C   0  0  0  0  0  0  0  0  0  0  0  0
  -22.5241   -4.4906  -30.1372 C   0  0  0  0  0  0  0  0  0  0  0  0
  -20.3334   -4.7337  -29.1789 C   0  0  0  0  0  0  0  0  0  0  0  0
  -22.2521   -4.3275  -27.7228 C   0  0  0  0  0  0  0  0  0  0  0  0
  -20.0589   -4.5695  -26.7500 C   0  0  0  0  0  0  0  0  0  0  0  0
  -21.9812   -4.1741  -25.4276 C   0  0  0  0  0  0  0  0  0  0  0  0
  -18.0460   -5.9744  -26.6821 C   0  0  0  0  0  0  0  0  0  0  0  0
  -18.5543   -7.9192  -35.9070 C   0  0  0  0  0  0  0  0  0  0  0  0
  -22.6305   -3.9716  -24.1438 C   0  0  0  0  0  0  0  0  0  0  0  0
  -26.1099   -4.8381  -23.1408 C   0  0  0  0  0  0  0  0  0  0  0  0
  -20.5562   -7.0848  -36.7208 C   0  0  0  0  0  0  0  0  0  0  0  0
  -20.3141   -8.4762  -37.2508 C   0  0  0  0  0  0  0  0  0  0  0  0
  -23.4579   -4.4497  -31.3051 C   0  0  0  0  0  0  0  0  0  0  0  0
  -18.8705   -4.9711  -29.4303 C   0  0  0  0  0  0  0  0  0  0  0  0
  -18.7480   -7.2674  -26.5621 C   0  0  0  0  0  0  0  0  0  0  0  0
  -19.0168   -5.4655  -35.5618 C   0  0  0  0  0  0  0  0  0  0  0  0
  -24.7467   -4.2453  -22.8256 C   0  0  0  0  0  0  0  0  0  0  0  0
  -17.8566   -3.7212  -26.8683 N   0  0  0  0  0  0  0  0  0  0  0  0
  -22.7978   -4.1443  -26.5056 N   0  0  0  0  0  0  0  0  0  0  0  0
  -18.6865   -4.7731  -26.7648 N   0  0  0  0  0  0  0  0  0  0  0  0
  -19.3079   -6.7805  -36.0897 N   0  0  0  0  0  0  0  0  0  0  0  0
  -23.9594   -4.3981  -24.0279 N   0  0  0  0  0  0  0  0  0  0  0  0
  -26.9452   -4.7977  -22.1937 O   0  5  0  0  0  0  0  0  0  0  0  0
  -17.4912   -8.0263  -35.3114 O   0  0  0  0  0  0  0  0  0  0  0  0
  -22.0227   -3.4225  -23.2068 O   0  0  0  0  0  0  0  0  0  0  0  0
  -26.2423   -5.2868  -24.3145 O   0  0  0  0  0  0  0  0  0  0  0  0
  -19.1963   -8.9791  -36.5005 O   0  0  0  0  0  0  0  0  0  0  0  0
  -20.2397   -2.7933  -31.9650 H   0  0  0  0  0  0  0  0  0  0  0  0
  -20.8699   -7.0478  -31.6076 H   0  0  0  0  0  0  0  0  0  0  0  0
  -19.3204   -3.1231  -34.2221 H   0  0  0  0  0  0  0  0  0  0  0  0
  -19.9497   -7.3698  -33.8657 H   0  0  0  0  0  0  0  0  0  0  0  0
  -15.8845   -6.3918  -26.6977 H   0  0  0  0  0  0  0  0  0  0  0  0
  -24.1272   -4.1366  -28.7480 H   0  0  0  0  0  0  0  0  0  0  0  0
  -20.0131   -4.3945  -24.5922 H   0  0  0  0  0  0  0  0  0  0  0  0
  -15.7738   -3.6537  -26.9207 H   0  0  0  0  0  0  0  0  0  0  0  0
  -20.7942   -6.3669  -37.5097 H   0  0  0  0  0  0  0  0  0  0  0  0
  -21.3419   -7.0739  -35.9590 H   0  0  0  0  0  0  0  0  0  0  0  0
  -21.1764   -9.1314  -37.0984 H   0  0  0  0  0  0  0  0  0  0  0  0
  -20.0426   -8.4757  -38.3114 H   0  0  0  0  0  0  0  0  0  0  0  0
  -23.5427   -3.4258  -31.6848 H   0  0  0  0  0  0  0  0  0  0  0  0
  -23.1037   -5.0971  -32.1156 H   0  0  0  0  0  0  0  0  0  0  0  0
  -24.4563   -4.8043  -31.0238 H   0  0  0  0  0  0  0  0  0  0  0  0
  -18.6601   -6.0432  -29.4068 H   0  0  0  0  0  0  0  0  0  0  0  0
  -18.5754   -4.5702  -30.4039 H   0  0  0  0  0  0  0  0  0  0  0  0
  -18.2617   -4.4705  -28.6722 H   0  0  0  0  0  0  0  0  0  0  0  0
  -18.9137   -7.5328  -25.5052 H   0  0  0  0  0  0  0  0  0  0  0  0
  -19.7315   -7.2521  -27.0620 H   0  0  0  0  0  0  0  0  0  0  0  0
  -18.1814   -8.0907  -27.0297 H   0  0  0  0  0  0  0  0  0  0  0  0
  -19.4268   -4.7288  -36.2668 H   0  0  0  0  0  0  0  0  0  0  0  0
  -17.9251   -5.3423  -35.5737 H   0  0  0  0  0  0  0  0  0  0  0  0
  -24.2740   -4.7726  -21.9912 H   0  0  0  0  0  0  0  0  0  0  0  0
  -24.8338   -3.1876  -22.5585 H   0  0  0  0  0  0  0  0  0  0  0  0
  -24.4289   -4.7825  -24.8413 H   0  0  0  0  0  0  0  0  0  0  0  0
  1  3  1  0  0  0  0
  1 10  2  0  0  0  0
  2  4  2  0  0  0  0
  2 10  1  0  0  0  0
  3 12  2  0  0  0  0
  4 12  1  0  0  0  0
  5  8  1  0  0  0  0
  5 18  2  0  0  0  0
  6 13  2  0  0  0  0
  6 15  1  0  0  0  0
  7 16  1  0  0  0  0
  7 17  2  0  0  0  0
  8 29  2  0  0  0  0
  9 14  1  0  0  0  0
  9 15  1  0  0  0  0
  9 16  2  0  0  0  0
 10 11  1  0  0  0  0
 11 13  1  0  0  0  0
 11 14  2  0  0  0  0
 12 27  1  0  0  0  0
 13 24  1  0  0  0  0
 14 25  1  0  0  0  0
 15 30  2  0  0  0  0
 16 31  1  0  0  0  0
 17 20  1  0  0  0  0
 17 30  1  0  0  0  0
 18 26  1  0  0  0  0
 18 31  1  0  0  0  0
 19 32  1  0  0  0  0
 19 35  2  0  0  0  0
 19 38  1  0  0  0  0
 20 33  1  0  0  0  0
 20 36  2  0  0  0  0
 21 28  1  0  0  0  0
 21 34  1  0  0  0  0
 21 37  2  0  0  0  0
 22 23  1  0  0  0  0
 22 32  1  0  0  0  0
 23 38  1  0  0  0  0
 27 32  1  0  0  0  0
 28 33  1  0  0  0  0
 29 31  1  0  0  0  0
  1 39  1  0  0  0  0
  2 40  1  0  0  0  0
  3 41  1  0  0  0  0
  4 42  1  0  0  0  0
  5 43  1  0  0  0  0
  6 44  1  0  0  0  0
  7 45  1  0  0  0  0
  8 46  1  0  0  0  0
 22 47  1  0  0  0  0
 22 48  1  0  0  0  0
 23 49  1  0  0  0  0
 23 50  1  0  0  0  0
 24 51  1  0  0  0  0
 24 52  1  0  0  0  0
 24 53  1  0  0  0  0
 25 54  1  0  0  0  0
 25 55  1  0  0  0  0
 25 56  1  0  0  0  0
 26 57  1  0  0  0  0
 26 58  1  0  0  0  0
 26 59  1  0  0  0  0
 27 60  1  0  0  0  0
 27 61  1  0  0  0  0
 28 62  1  0  0  0  0
 28 63  1  0  0  0  0
 33 64  1  0  0  0  0
M  CHG  1  34  -1
M  END
> <SMILES>
Cc1cc2nc(cc(c2c(c1-c1ccc(cc1)CN1CCOC1=O)C)-n1nccc1C)C(=O)NCC(=O)O

> <FORMATTED_ID>
H3D-007279

> <MOLFORMULA>
C28H27N5O5

> <Exact Mass>
513.2

> <XLogP>
3.08

> <TPSA_NOPS>
126.6

> <s_m_source_file>
ligprep_h3d.sdf

> <i_m_source_file_index>
1142

> <i_lp_mmshare_version>
55123

> <i_f3d_flags>
0

> <s_epik_input>
Tz1DKFtPSF0pW0NIMl1bTkhdQyg9TyljKG4xKVtjSF1jKC1uMm5bY0hdW2NIXWMyW0NIM10pYyhjMTMpYyhbQ0gzXSljKGMoW0NIM10pW2NIXTMpLWM0W2NIXVtjSF1jKFtjSF1bY0hdNClbQ0gyXU41W0NIMl1bQ0gyXU9DNT1P

> <s_epik_cmdline>
J2VwaWtfcHl0aG9uJywgJy1waHQnLCAnMC41JywgJy1waCcsICc3LjUnLCAnLXRuJywgJzgnLCAnLW1hJywgJzUwMCcsICctaW1hZScsICc8aW5maWxlLm1hZT4nLCAnLW9tYWUnLCAnPG91dGZpbGUubWFlPic=

> <r_lp_tautomer_probability>
1

> <r_epik_Ionization_Penalty>
9.1632e-05

> <r_epik_Ionization_Penalty_Charging>
7.49142e-05

> <r_epik_Ionization_Penalty_Neutral>
1.67178e-05

> <r_epik_State_Penalty>
-0

> <r_epik_Charging_Adjusted_Penalty>
7.49142e-05

> <i_epik_Tot_Q>
-1

> <i_epik_Tot_abs_Q>
1

> <s_epik_Chemistry_Notes>
This compound has an ester and may undergo hydrolysis at high or low pH.

> <s_lp_Force_Field>
S-OPLS

> <r_lp_Energy>
46.1989

> <b_lp_Chiralities_Consistent>
1

> <s_lp_Variant>
ligprep_h3d.sdf:1142-1

> <ROCS_ShapeQuery>
_7L13

> <ROCS_TanimotoCombo>
0.813 

> <ROCS_ShapeTanimoto>
0.657 

> <ROCS_ColorTanimoto>
0.156 

> <ROCS_RefTversky>
0.819 

> <ROCS_RefColorTversky>
0.324 

> <ROCS_RefTverskyCombo>
1.142 

> <ROCS_FitTversky>
0.769 

> <ROCS_FitColorTversky>
0.232 

> <ROCS_FitTverskyCombo>
1.001 

> <ROCS_ColorScore>
-2.977

> <ROCS_Overlap>
1364.655

> <ROCS_Rank>
56                  

$$$$
ligprep_h3d.sdf:1180_1909
  -OEChem-08212117123D

 68 72  0     0  0  0  0  0  0999 V2000
  -20.2023   -4.0787  -32.2312 C   0  0  0  0  0  0  0  0  0  0  0  0
  -20.9038   -6.3815  -32.0260 C   0  0  0  0  0  0  0  0  0  0  0  0
  -19.6981   -4.3457  -33.5040 C   0  0  0  0  0  0  0  0  0  0  0  0
  -20.3996   -6.6485  -33.2989 C   0  0  0  0  0  0  0  0  0  0  0  0
  -16.7487   -5.2560  -26.6515 C   0  0  0  0  0  0  0  0  0  0  0  0
  -23.1607   -4.1346  -28.7506 C   0  0  0  0  0  0  0  0  0  0  0  0
  -20.7992   -4.5539  -25.3568 C   0  0  0  0  0  0  0  0  0  0  0  0
  -17.2970   -6.5473  -26.5337 C   0  0  0  0  0  0  0  0  0  0  0  0
  -21.0442   -4.6923  -27.7580 C   0  0  0  0  0  0  0  0  0  0  0  0
  -20.8051   -5.0967  -31.4921 C   0  0  0  0  0  0  0  0  0  0  0  0
  -21.3291   -4.8191  -30.1651 C   0  0  0  0  0  0  0  0  0  0  0  0
  -22.6473   -4.4042  -30.0217 C   0  0  0  0  0  0  0  0  0  0  0  0
  -20.5276   -4.9634  -29.0364 C   0  0  0  0  0  0  0  0  0  0  0  0
  -22.3817   -4.2707  -27.6048 C   0  0  0  0  0  0  0  0  0  0  0  0
  -20.2596   -4.8292  -26.6050 C   0  0  0  0  0  0  0  0  0  0  0  0
  -19.7968   -5.6306  -34.0379 C   0  0  0  0  0  0  0  0  0  0  0  0
  -22.1172   -4.1474  -25.3070 C   0  0  0  0  0  0  0  0  0  0  0  0
  -17.8395   -4.4224  -26.6942 C   0  0  0  0  0  0  0  0  0  0  0  0
  -19.2954   -7.1171  -36.0181 C   0  0  0  0  0  0  0  0  0  0  0  0
  -22.7441   -3.8447  -24.0318 C   0  0  0  0  0  0  0  0  0  0  0  0
  -18.5502   -4.9316  -36.1030 C   0  0  0  0  0  0  0  0  0  0  0  0
  -18.4780   -5.5597  -37.4699 C   0  0  0  0  0  0  0  0  0  0  0  0
  -23.5513   -4.2317  -31.2009 C   0  0  0  0  0  0  0  0  0  0  0  0
  -19.1131   -5.4156  -29.2694 C   0  0  0  0  0  0  0  0  0  0  0  0
  -17.9207   -2.9533  -26.8118 C   0  0  0  0  0  0  0  0  0  0  0  0
  -28.3051   -6.1212  -22.8885 C   0  0  0  0  0  0  0  0  0  0  0  0
  -24.8924   -3.7960  -22.7382 C   0  0  0  0  0  0  0  0  0  0  0  0
  -26.3601   -4.1352  -22.9143 C   0  0  0  0  0  0  0  0  0  0  0  0
  -18.6323   -6.5397  -26.5033 N   0  0  0  0  0  0  0  0  0  0  0  0
  -22.9081   -4.0027  -26.3949 N   0  0  0  0  0  0  0  0  0  0  0  0
  -18.9322   -5.2335  -26.6026 N   0  0  0  0  0  0  0  0  0  0  0  0
  -19.2816   -5.9024  -35.3373 N   0  0  0  0  0  0  0  0  0  0  0  0
  -24.1226   -4.0695  -23.9305 N   0  0  0  0  0  0  0  0  0  0  0  0
  -19.7227   -8.2046  -35.6572 O   0  0  0  0  0  0  0  0  0  0  0  0
  -22.0725   -3.3866  -23.0895 O   0  0  0  0  0  0  0  0  0  0  0  0
  -26.5162   -5.9523  -24.7869 O   0  0  0  0  0  0  0  0  0  0  0  0
  -25.7780   -6.6453  -22.4746 O   0  0  0  0  0  0  0  0  0  0  0  0
  -18.6945   -6.9553  -37.2460 O   0  0  0  0  0  0  0  0  0  0  0  0
  -26.6107   -5.8298  -23.3422 S   0  0  0  0  0  0  0  0  0  0  0  0
  -20.1174   -3.0723  -31.8279 H   0  0  0  0  0  0  0  0  0  0  0  0
  -21.3698   -7.1861  -31.4622 H   0  0  0  0  0  0  0  0  0  0  0  0
  -19.2284   -3.5452  -34.0699 H   0  0  0  0  0  0  0  0  0  0  0  0
  -20.4801   -7.6539  -33.7046 H   0  0  0  0  0  0  0  0  0  0  0  0
  -15.7076   -4.9717  -26.6983 H   0  0  0  0  0  0  0  0  0  0  0  0
  -24.1961   -3.8101  -28.6531 H   0  0  0  0  0  0  0  0  0  0  0  0
  -20.2130   -4.6519  -24.4473 H   0  0  0  0  0  0  0  0  0  0  0  0
  -16.7790   -7.4933  -26.4685 H   0  0  0  0  0  0  0  0  0  0  0  0
  -17.5525   -4.8267  -35.6612 H   0  0  0  0  0  0  0  0  0  0  0  0
  -19.0510   -3.9586  -36.1080 H   0  0  0  0  0  0  0  0  0  0  0  0
  -19.2616   -5.1908  -38.1396 H   0  0  0  0  0  0  0  0  0  0  0  0
  -17.5017   -5.4120  -37.9405 H   0  0  0  0  0  0  0  0  0  0  0  0
  -23.4796   -3.2085  -31.5851 H   0  0  0  0  0  0  0  0  0  0  0  0
  -23.2875   -4.9284  -32.0049 H   0  0  0  0  0  0  0  0  0  0  0  0
  -24.5944   -4.4334  -30.9304 H   0  0  0  0  0  0  0  0  0  0  0  0
  -19.0637   -6.5069  -29.2397 H   0  0  0  0  0  0  0  0  0  0  0  0
  -18.7509   -5.0677  -30.2407 H   0  0  0  0  0  0  0  0  0  0  0  0
  -18.4456   -5.0066  -28.5057 H   0  0  0  0  0  0  0  0  0  0  0  0
  -17.9662   -2.6412  -27.8680 H   0  0  0  0  0  0  0  0  0  0  0  0
  -18.8114   -2.5461  -26.3034 H   0  0  0  0  0  0  0  0  0  0  0  0
  -17.0517   -2.4527  -26.3514 H   0  0  0  0  0  0  0  0  0  0  0  0
  -28.5504   -7.1587  -23.1212 H   0  0  0  0  0  0  0  0  0  0  0  0
  -28.4125   -5.9334  -21.8192 H   0  0  0  0  0  0  0  0  0  0  0  0
  -28.9369   -5.4410  -23.4618 H   0  0  0  0  0  0  0  0  0  0  0  0
  -24.7512   -2.7397  -22.4891 H   0  0  0  0  0  0  0  0  0  0  0  0
  -24.4602   -4.4006  -21.9351 H   0  0  0  0  0  0  0  0  0  0  0  0
  -26.7917   -3.5469  -23.7296 H   0  0  0  0  0  0  0  0  0  0  0  0
  -26.9331   -3.9472  -22.0013 H   0  0  0  0  0  0  0  0  0  0  0  0
  -24.6344   -4.3845  -24.7482 H   0  0  0  0  0  0  0  0  0  0  0  0
  1  3  1  0  0  0  0
  1 10  2  0  0  0  0
  2  4  2  0  0  0  0
  2 10  1  0  0  0  0
  3 16  2  0  0  0  0
  4 16  1  0  0  0  0
  5  8  1  0  0  0  0
  5 18  2  0  0  0  0
  6 12  2  0  0  0  0
  6 14  1  0  0  0  0
  7 15  1  0  0  0  0
  7 17  2  0  0  0  0
  8 29  2  0  0  0  0
  9 13  1  0  0  0  0
  9 14  1  0  0  0  0
  9 15  2  0  0  0  0
 10 11  1  0  0  0  0
 11 12  1  0  0  0  0
 11 13  2  0  0  0  0
 12 23  1  0  0  0  0
 13 24  1  0  0  0  0
 14 30  2  0  0  0  0
 15 31  1  0  0  0  0
 16 32  1  0  0  0  0
 17 20  1  0  0  0  0
 17 30  1  0  0  0  0
 18 25  1  0  0  0  0
 18 31  1  0  0  0  0
 19 32  1  0  0  0  0
 19 34  2  0  0  0  0
 19 38  1  0  0  0  0
 20 33  1  0  0  0  0
 20 35  2  0  0  0  0
 21 22  1  0  0  0  0
 21 32  1  0  0  0  0
 22 38  1  0  0  0  0
 26 39  1  0  0  0  0
 27 28  1  0  0  0  0
 27 33  1  0  0  0  0
 28 39  1  0  0  0  0
 29 31  1  0  0  0  0
 36 39  2  0  0  0  0
 37 39  2  0  0  0  0
  1 40  1  0  0  0  0
  2 41  1  0  0  0  0
  3 42  1  0  0  0  0
  4 43  1  0  0  0  0
  5 44  1  0  0  0  0
  6 45  1  0  0  0  0
  7 46  1  0  0  0  0
  8 47  1  0  0  0  0
 21 48  1  0  0  0  0
 21 49  1  0  0  0  0
 22 50  1  0  0  0  0
 22 51  1  0  0  0  0
 23 52  1  0  0  0  0
 23 53  1  0  0  0  0
 23 54  1  0  0  0  0
 24 55  1  0  0  0  0
 24 56  1  0  0  0  0
 24 57  1  0  0  0  0
 25 58  1  0  0  0  0
 25 59  1  0  0  0  0
 25 60  1  0  0  0  0
 26 61  1  0  0  0  0
 26 62  1  0  0  0  0
 26 63  1  0  0  0  0
 27 64  1  0  0  0  0
 27 65  1  0  0  0  0
 28 66  1  0  0  0  0
 28 67  1  0  0  0  0
 33 68  1  0  0  0  0
M  END
> <SMILES>
Cc1cc2nc(cc(c2c(c1-c1ccc(cc1)N1CCOC1=O)C)-n1nccc1C)C(=O)NCCS(=O)(=O)C

> <FORMATTED_ID>
H3D-008200

> <MOLFORMULA>
C28H29N5O5S

> <Exact Mass>
547.19

> <XLogP>
3.1

> <TPSA_NOPS>
131.9

> <s_m_source_file>
ligprep_h3d.sdf

> <i_m_source_file_index>
1180

> <i_lp_mmshare_version>
55123

> <i_f3d_flags>
0

> <s_epik_input>
Tz1DMU9bQ0gyXVtDSDJdTjFjKFtjSF1bY0hdMilbY0hdW2NIXWMyLWMoYyhbQ0gzXSlbY0hdMyljKFtDSDNdKWMoYzM0KWMoLW41bltjSF1bY0hdYzVbQ0gzXSlbY0hdYyhuNClDKD1PKVtOSF1bQ0gyXVtDSDJdUyg9TykoPU8pW0NIM10=

> <s_epik_cmdline>
J2VwaWtfcHl0aG9uJywgJy1waHQnLCAnMC41JywgJy1waCcsICc3LjUnLCAnLXRuJywgJzgnLCAnLW1hJywgJzUwMCcsICctaW1hZScsICc8aW5maWxlLm1hZT4nLCAnLW9tYWUnLCAnPG91dGZpbGUubWFlPic=

> <r_lp_tautomer_probability>
1

> <r_epik_Ionization_Penalty>
2.1658e-05

> <r_epik_Ionization_Penalty_Charging>
0

> <r_epik_Ionization_Penalty_Neutral>
2.1658e-05

> <r_epik_State_Penalty>
-0

> <r_epik_Charging_Adjusted_Penalty>
0

> <i_epik_Tot_Q>
0

> <i_epik_Tot_abs_Q>
0

> <s_epik_Chemistry_Notes>
This compound has an ester and may undergo hydrolysis at high or low pH.

> <s_lp_Force_Field>
S-OPLS

> <r_lp_Energy>
34.6818

> <b_lp_Chiralities_Consistent>
1

> <s_lp_Variant>
ligprep_h3d.sdf:1180-1

> <ROCS_ShapeQuery>
_7L13

> <ROCS_TanimotoCombo>
0.757 

> <ROCS_ShapeTanimoto>
0.651 

> <ROCS_ColorTanimoto>
0.107 

> <ROCS_RefTversky>
0.819 

> <ROCS_RefColorTversky>
0.221 

> <ROCS_RefTverskyCombo>
1.040 

> <ROCS_FitTversky>
0.760 

> <ROCS_FitColorTversky>
0.171 

> <ROCS_FitTverskyCombo>
0.931 

> <ROCS_ColorScore>
-2.025

> <ROCS_Overlap>
1365.203

> <ROCS_Rank>
57                  

$$$$
ligprep_h3d.sdf:5346_1846
  -OEChem-08212117123D

 81 87  0     0  0  0  0  0  0999 V2000
  -20.1288   -7.2044  -35.6474 C   0  0  0  0  0  0  0  0  0  0  0  0
  -20.7188   -7.5971  -34.4461 C   0  0  0  0  0  0  0  0  0  0  0  0
  -19.1085   -6.2532  -35.6452 C   0  0  0  0  0  0  0  0  0  0  0  0
  -20.2887   -7.0385  -33.2425 C   0  0  0  0  0  0  0  0  0  0  0  0
  -18.6784   -5.6946  -34.4416 C   0  0  0  0  0  0  0  0  0  0  0  0
  -22.3945   -4.1544  -29.3293 C   0  0  0  0  0  0  0  0  0  0  0  0
  -19.5903   -4.4149  -29.2936 C   0  0  0  0  0  0  0  0  0  0  0  0
  -14.5497   -5.0891  -25.2681 C   0  0  0  0  0  0  0  0  0  0  0  0
  -14.6396   -6.2675  -24.5746 C   0  0  0  0  0  0  0  0  0  0  0  0
  -21.7016   -4.2631  -28.1295 C   0  0  0  0  0  0  0  0  0  0  0  0
  -19.2685   -6.0873  -33.2402 C   0  0  0  0  0  0  0  0  0  0  0  0
  -20.3074   -4.3911  -28.1028 C   0  0  0  0  0  0  0  0  0  0  0  0
  -21.6728   -4.1695  -30.5222 C   0  0  0  0  0  0  0  0  0  0  0  0
  -20.2792   -4.3001  -30.5044 C   0  0  0  0  0  0  0  0  0  0  0  0
  -16.6596   -5.7706  -25.3211 C   0  0  0  0  0  0  0  0  0  0  0  0
  -18.1055   -5.7232  -25.6680 C   0  0  0  0  0  0  0  0  0  0  0  0
  -17.5345   -3.6498  -26.7961 C   0  0  0  0  0  0  0  0  0  0  0  0
  -16.2301   -3.7174  -26.4685 C   0  0  0  0  0  0  0  0  0  0  0  0
  -18.5241   -4.6668  -26.3986 C   0  0  0  0  0  0  0  0  0  0  0  0
  -23.8329   -3.2377  -25.0346 C   0  0  0  0  0  0  0  0  0  0  0  0
  -23.6499   -5.7619  -25.1213 C   0  0  0  0  0  0  0  0  0  0  0  0
  -23.2035   -3.1392  -26.4253 C   0  0  0  0  0  0  0  0  0  0  0  0
  -22.9802   -5.6674  -26.4954 C   0  0  0  0  0  0  0  0  0  0  0  0
  -26.6186   -5.7946  -21.8857 C   0  0  0  0  0  0  0  0  0  0  0  0
  -26.0643   -3.4685  -21.5265 C   0  0  0  0  0  0  0  0  0  0  0  0
  -20.9400   -4.2230  -25.8902 C   0  0  0  0  0  0  0  0  0  0  0  0
  -26.1687   -5.7135  -23.3407 C   0  0  0  0  0  0  0  0  0  0  0  0
  -25.5982   -3.3199  -22.9709 C   0  0  0  0  0  0  0  0  0  0  0  0
  -24.5640   -4.5666  -24.8699 C   0  0  0  0  0  0  0  0  0  0  0  0
  -22.2582   -4.3200  -26.7259 C   0  0  0  0  0  0  0  0  0  0  0  0
  -27.5759   -4.5965  -20.0273 C   0  0  0  0  0  0  0  0  0  0  0  0
  -22.5381   -2.7482  -32.2213 C   0  0  0  0  0  0  0  0  0  0  0  0
  -18.8054   -5.4859  -31.9458 C   0  0  0  0  0  0  0  0  0  0  0  0
  -15.8188   -4.7994  -25.7235 N   0  0  0  0  0  0  0  0  0  0  0  0
  -15.9552   -6.6659  -24.6241 N   0  3  0  0  0  0  0  0  0  0  0  0
  -19.8099   -4.4882  -26.7889 N   0  0  0  0  0  0  0  0  0  0  0  0
  -27.1088   -4.4944  -21.4095 N   0  0  0  0  0  0  0  0  0  0  0  0
  -25.1037   -4.6540  -23.4706 N   0  3  0  0  0  0  0  0  0  0  0  0
  -22.3394   -4.0629  -31.7063 O   0  0  0  0  0  0  0  0  0  0  0  0
  -19.5765   -4.3183  -31.6730 O   0  0  0  0  0  0  0  0  0  0  0  0
  -20.4629   -7.6404  -36.5844 H   0  0  0  0  0  0  0  0  0  0  0  0
  -21.5125   -8.3385  -34.4475 H   0  0  0  0  0  0  0  0  0  0  0  0
  -18.6482   -5.9480  -36.5802 H   0  0  0  0  0  0  0  0  0  0  0  0
  -20.7544   -7.3504  -32.3113 H   0  0  0  0  0  0  0  0  0  0  0  0
  -17.8830   -4.9541  -34.4495 H   0  0  0  0  0  0  0  0  0  0  0  0
  -23.4765   -4.0701  -29.3421 H   0  0  0  0  0  0  0  0  0  0  0  0
  -18.5093   -4.5145  -29.3001 H   0  0  0  0  0  0  0  0  0  0  0  0
  -13.7508   -4.4112  -25.5020 H   0  0  0  0  0  0  0  0  0  0  0  0
  -13.9524   -6.8953  -24.0428 H   0  0  0  0  0  0  0  0  0  0  0  0
  -18.7637   -6.5155  -25.3336 H   0  0  0  0  0  0  0  0  0  0  0  0
  -17.8886   -2.8073  -27.3834 H   0  0  0  0  0  0  0  0  0  0  0  0
  -15.4957   -2.9761  -26.7551 H   0  0  0  0  0  0  0  0  0  0  0  0
  -23.0530   -3.1309  -24.2705 H   0  0  0  0  0  0  0  0  0  0  0  0
  -24.5314   -2.4034  -24.8974 H   0  0  0  0  0  0  0  0  0  0  0  0
  -24.2264   -6.6936  -25.0685 H   0  0  0  0  0  0  0  0  0  0  0  0
  -22.8813   -5.8241  -24.3417 H   0  0  0  0  0  0  0  0  0  0  0  0
  -24.0130   -3.1067  -27.1664 H   0  0  0  0  0  0  0  0  0  0  0  0
  -22.6717   -2.1835  -26.5185 H   0  0  0  0  0  0  0  0  0  0  0  0
  -22.2822   -6.5066  -26.6140 H   0  0  0  0  0  0  0  0  0  0  0  0
  -23.7541   -5.8070  -27.2626 H   0  0  0  0  0  0  0  0  0  0  0  0
  -27.4230   -6.5374  -21.8218 H   0  0  0  0  0  0  0  0  0  0  0  0
  -25.7922   -6.1586  -21.2608 H   0  0  0  0  0  0  0  0  0  0  0  0
  -25.2076   -3.7036  -20.8807 H   0  0  0  0  0  0  0  0  0  0  0  0
  -26.4610   -2.5004  -21.1971 H   0  0  0  0  0  0  0  0  0  0  0  0
  -20.8158   -3.2148  -25.4729 H   0  0  0  0  0  0  0  0  0  0  0  0
  -20.9309   -4.9224  -25.0470 H   0  0  0  0  0  0  0  0  0  0  0  0
  -25.7262   -6.6607  -23.6611 H   0  0  0  0  0  0  0  0  0  0  0  0
  -26.9921   -5.4437  -24.0095 H   0  0  0  0  0  0  0  0  0  0  0  0
  -26.4085   -2.9953  -23.6314 H   0  0  0  0  0  0  0  0  0  0  0  0
  -24.7626   -2.6179  -23.0365 H   0  0  0  0  0  0  0  0  0  0  0  0
  -25.4350   -4.6072  -25.5339 H   0  0  0  0  0  0  0  0  0  0  0  0
  -27.9385   -3.6147  -19.6888 H   0  0  0  0  0  0  0  0  0  0  0  0
  -28.3944   -5.3292  -19.9702 H   0  0  0  0  0  0  0  0  0  0  0  0
  -26.7461   -4.9228  -19.3831 H   0  0  0  0  0  0  0  0  0  0  0  0
  -23.0812   -2.8051  -33.1678 H   0  0  0  0  0  0  0  0  0  0  0  0
  -21.5696   -2.2652  -32.3731 H   0  0  0  0  0  0  0  0  0  0  0  0
  -23.1230   -2.1695  -31.5024 H   0  0  0  0  0  0  0  0  0  0  0  0
  -18.9258   -6.1945  -31.1193 H   0  0  0  0  0  0  0  0  0  0  0  0
  -17.7464   -5.2118  -32.0025 H   0  0  0  0  0  0  0  0  0  0  0  0
  -16.3316   -7.5080  -24.1974 H   0  0  0  0  0  0  0  0  0  0  0  0
  -24.3192   -4.9354  -22.8646 H   0  0  0  0  0  0  0  0  0  0  0  0
  1  2  2  0  0  0  0
  1  3  1  0  0  0  0
  2  4  1  0  0  0  0
  3  5  2  0  0  0  0
  4 11  2  0  0  0  0
  5 11  1  0  0  0  0
  6 10  1  0  0  0  0
  6 13  2  0  0  0  0
  7 12  1  0  0  0  0
  7 14  2  0  0  0  0
  8  9  2  0  0  0  0
  8 34  1  0  0  0  0
  9 35  1  0  0  0  0
 10 12  2  0  0  0  0
 10 30  1  0  0  0  0
 11 33  1  0  0  0  0
 12 36  1  0  0  0  0
 13 14  1  0  0  0  0
 13 39  1  0  0  0  0
 14 40  1  0  0  0  0
 15 16  1  0  0  0  0
 15 34  1  0  0  0  0
 15 35  2  0  0  0  0
 16 19  2  0  0  0  0
 17 18  2  0  0  0  0
 17 19  1  0  0  0  0
 18 34  1  0  0  0  0
 19 36  1  0  0  0  0
 20 22  1  0  0  0  0
 20 29  1  0  0  0  0
 21 23  1  0  0  0  0
 21 29  1  0  0  0  0
 22 30  1  0  0  0  0
 23 30  1  0  0  0  0
 24 27  1  0  0  0  0
 24 37  1  0  0  0  0
 25 28  1  0  0  0  0
 25 37  1  0  0  0  0
 26 30  1  0  0  0  0
 26 36  1  0  0  0  0
 27 38  1  0  0  0  0
 28 38  1  0  0  0  0
 29 38  1  0  0  0  0
 31 37  1  0  0  0  0
 32 39  1  0  0  0  0
 33 40  1  0  0  0  0
  1 41  1  0  0  0  0
  2 42  1  0  0  0  0
  3 43  1  0  0  0  0
  4 44  1  0  0  0  0
  5 45  1  0  0  0  0
  6 46  1  0  0  0  0
  7 47  1  0  0  0  0
  8 48  1  0  0  0  0
  9 49  1  0  0  0  0
 16 50  1  0  0  0  0
 17 51  1  0  0  0  0
 18 52  1  0  0  0  0
 20 53  1  0  0  0  0
 20 54  1  0  0  0  0
 21 55  1  0  0  0  0
 21 56  1  0  0  0  0
 22 57  1  0  0  0  0
 22 58  1  0  0  0  0
 23 59  1  0  0  0  0
 23 60  1  0  0  0  0
 24 61  1  0  0  0  0
 24 62  1  0  0  0  0
 25 63  1  0  0  0  0
 25 64  1  0  0  0  0
 26 65  1  0  0  0  0
 26 66  1  0  0  0  0
 27 67  1  0  0  0  0
 27 68  1  0  0  0  0
 28 69  1  0  0  0  0
 28 70  1  0  0  0  0
 29 71  1  0  0  0  0
 31 72  1  0  0  0  0
 31 73  1  0  0  0  0
 31 74  1  0  0  0  0
 32 75  1  0  0  0  0
 32 76  1  0  0  0  0
 32 77  1  0  0  0  0
 33 78  1  0  0  0  0
 33 79  1  0  0  0  0
 35 80  1  0  0  0  0
 38 81  1  0  0  0  0
M  CHG  2  35   1  38   1
M  END
> <SMILES>
COc1cc2c(cc1OCc1ccccc1)N(CC12CCC(CC1)N1CCN(C)CC1)c1ccn2ccnc2c1

> <FORMATTED_ID>
H3D-014980

> <MOLFORMULA>
C33H39N5O2

> <Exact Mass>
537.31

> <XLogP>
6.54

> <TPSA_NOPS>
45.5

> <s_m_source_file>
ligprep_h3d.sdf

> <i_m_source_file_index>
5346

> <i_lp_mmshare_version>
55123

> <i_f3d_flags>
0

> <s_epik_input>
W2NIXTFbY0hdW2NIXVtjSF1bY0hdYzFbQ0gyXU9jKGMoW2NIXTIpT1tDSDNdKVtjSF1jKE4oW0NIMl0zKWMoW2NIXVtjSF00KVtjSF1jKG40NSluW2NIXVtjSF01KWMyW0NAXTM2W0NIMl1bQ0gyXVtDQEhdKFtDSDJdW0NIMl02KU43W0NIMl1bQ0gyXU4oW0NIM10pW0NIMl1bQ0gyXTc=

> <s_epik_cmdline>
J2VwaWtfcHl0aG9uJywgJy1waHQnLCAnMC41JywgJy1waCcsICc3LjUnLCAnLXRuJywgJzgnLCAnLW1hJywgJzUwMCcsICctaW1hZScsICc8aW5maWxlLm1hZT4nLCAnLW9tYWUnLCAnPG91dGZpbGUubWFlPic=

> <r_lp_tautomer_probability>
1

> <r_epik_Ionization_Penalty>
0.33846

> <r_epik_Ionization_Penalty_Charging>
0.0012948

> <r_epik_Ionization_Penalty_Neutral>
0.337165

> <r_epik_State_Penalty>
0.331847

> <r_epik_Charging_Adjusted_Penalty>
0.333142

> <i_epik_Tot_Q>
2

> <i_epik_Tot_abs_Q>
2

> <s_lp_Force_Field>
S-OPLS

> <r_lp_Energy>
104.23

> <b_lp_Chiralities_Consistent>
1

> <s_lp_Variant>
ligprep_h3d.sdf:5346-1

> <ROCS_ShapeQuery>
_7L13

> <ROCS_TanimotoCombo>
0.704 

> <ROCS_ShapeTanimoto>
0.636 

> <ROCS_ColorTanimoto>
0.068 

> <ROCS_RefTversky>
0.818 

> <ROCS_RefColorTversky>
0.159 

> <ROCS_RefTverskyCombo>
0.977 

> <ROCS_FitTversky>
0.740 

> <ROCS_FitColorTversky>
0.107 

> <ROCS_FitTverskyCombo>
0.847 

> <ROCS_ColorScore>
-1.474

> <ROCS_Overlap>
1366.112

> <ROCS_Rank>
58                  

$$$$
ligprep_h3d.sdf:874_1601
  -OEChem-08212117123D

 60 65  0     1  0  0  0  0  0999 V2000
  -21.0896   -4.9289  -29.8211 C   0  0  0  0  0  0  0  0  0  0  0  0
  -21.8169   -4.1463  -30.7201 C   0  0  0  0  0  0  0  0  0  0  0  0
  -21.4004   -4.8496  -28.4417 C   0  0  0  0  0  0  0  0  0  0  0  0
  -22.4470   -4.0385  -27.9435 C   0  0  0  0  0  0  0  0  0  0  0  0
  -22.8115   -3.3322  -30.2249 C   0  0  0  0  0  0  0  0  0  0  0  0
  -23.1540   -3.2422  -28.8755 C   0  0  0  0  0  0  0  0  0  0  0  0
  -21.8456   -3.9057  -32.1064 C   0  0  0  0  0  0  0  0  0  0  0  0
  -19.8430   -8.4427  -34.8314 C   0  0  0  0  0  0  0  0  0  0  0  0
  -19.6056   -3.8261  -26.1570 C   0  0  0  0  0  0  0  0  0  0  0  0
  -19.8761   -6.2270  -25.2577 C   0  0  0  0  0  0  0  0  0  0  0  0
  -17.6290   -5.2118  -25.5705 C   0  0  0  0  0  0  0  0  0  0  0  0
  -20.5824   -5.6916  -27.4992 C   0  0  0  0  0  0  0  0  0  0  0  0
  -20.1632   -7.4160  -35.8897 C   0  0  0  0  0  0  0  0  0  0  0  0
  -19.6305   -6.1198  -35.2842 C   0  0  0  0  0  0  0  0  0  0  0  0
  -23.8512   -3.1999  -26.0706 C   0  0  0  0  0  0  0  0  0  0  0  0
  -21.9314   -4.7597  -25.5775 C   0  0  2  0  0  0  0  0  0  0  0  0
  -19.7663   -6.3277  -33.7808 C   0  0  1  0  0  0  0  0  0  0  0  0
  -24.3717   -3.6964  -24.7187 C   0  0  1  0  0  0  0  0  0  0  0  0
  -22.0121   -3.9538  -24.2483 C   0  0  2  0  0  0  0  0  0  0  0  0
  -20.4906   -5.0811  -26.0784 C   0  0  0  0  0  0  0  0  0  0  0  0
  -25.2530   -4.9374  -24.8475 C   0  0  0  0  0  0  0  0  0  0  0  0
  -21.1617   -4.4732  -23.0951 C   0  0  0  0  0  0  0  0  0  0  0  0
  -21.1126   -5.8625  -33.2420 C   0  0  0  0  0  0  0  0  0  0  0  0
  -22.7806   -3.0134  -32.4467 N   0  0  0  0  0  0  0  0  0  0  0  0
  -18.2450   -4.0556  -26.0275 N   0  0  0  0  0  0  0  0  0  0  0  0
  -18.4920   -6.2267  -25.1825 N   0  0  0  0  0  0  0  0  0  0  0  0
  -19.6144   -7.7553  -33.6439 N   0  0  0  0  0  0  0  0  0  0  0  0
  -22.7471   -4.0239  -26.5793 N   0  0  3  0  0  0  0  0  0  0  0  0
  -19.8288   -9.6521  -35.0009 O   0  0  0  0  0  0  0  0  0  0  0  0
  -20.0493   -2.7002  -26.3825 O   0  0  0  0  0  0  0  0  0  0  0  0
  -20.5495   -7.1370  -24.7722 O   0  0  0  0  0  0  0  0  0  0  0  0
  -16.4047   -5.3149  -25.4775 O   0  0  0  0  0  0  0  0  0  0  0  0
  -23.3898   -2.6501  -31.2512 O   0  0  0  0  0  0  0  0  0  0  0  0
  -23.3572   -3.9586  -23.7540 O   0  0  0  0  0  0  0  0  0  0  0  0
  -21.0799   -4.4367  -33.0690 O   0  0  0  0  0  0  0  0  0  0  0  0
  -24.0677   -2.3303  -28.5229 F   0  0  0  0  0  0  0  0  0  0  0  0
  -20.2934   -5.5781  -30.1741 H   0  0  0  0  0  0  0  0  0  0  0  0
  -21.0425   -6.6888  -27.4659 H   0  0  0  0  0  0  0  0  0  0  0  0
  -19.5725   -5.8252  -27.9107 H   0  0  0  0  0  0  0  0  0  0  0  0
  -19.6669   -7.6569  -36.8329 H   0  0  0  0  0  0  0  0  0  0  0  0
  -21.2474   -7.3801  -36.0333 H   0  0  0  0  0  0  0  0  0  0  0  0
  -18.5714   -6.0044  -35.5475 H   0  0  0  0  0  0  0  0  0  0  0  0
  -20.1665   -5.2415  -35.6564 H   0  0  0  0  0  0  0  0  0  0  0  0
  -24.6679   -3.2452  -26.8207 H   0  0  0  0  0  0  0  0  0  0  0  0
  -23.6353   -2.1253  -25.9668 H   0  0  0  0  0  0  0  0  0  0  0  0
  -22.4629   -5.7107  -25.4180 H   0  0  0  0  0  0  0  0  0  0  0  0
  -18.9580   -5.8323  -33.2350 H   0  0  0  0  0  0  0  0  0  0  0  0
  -25.0501   -2.8865  -24.2765 H   0  0  0  0  0  0  0  0  0  0  0  0
  -21.7241   -2.8991  -24.4118 H   0  0  0  0  0  0  0  0  0  0  0  0
  -24.6762   -5.7626  -25.2653 H   0  0  0  0  0  0  0  0  0  0  0  0
  -26.0977   -4.7282  -25.5039 H   0  0  0  0  0  0  0  0  0  0  0  0
  -25.6303   -5.2299  -23.8675 H   0  0  0  0  0  0  0  0  0  0  0  0
  -21.4070   -5.5155  -22.8910 H   0  0  0  0  0  0  0  0  0  0  0  0
  -21.3499   -3.8834  -22.1981 H   0  0  0  0  0  0  0  0  0  0  0  0
  -20.1043   -4.4020  -23.3502 H   0  0  0  0  0  0  0  0  0  0  0  0
  -21.3213   -6.3301  -32.2752 H   0  0  0  0  0  0  0  0  0  0  0  0
  -21.9143   -6.1143  -33.9425 H   0  0  0  0  0  0  0  0  0  0  0  0
  -17.6309   -3.2931  -26.2967 H   0  0  0  0  0  0  0  0  0  0  0  0
  -18.0639   -7.0384  -24.7467 H   0  0  0  0  0  0  0  0  0  0  0  0
  -19.3940   -8.2164  -32.7669 H   0  0  0  0  0  0  0  0  0  0  0  0
  1  2  2  0  0  0  0
  1  3  1  0  0  0  0
  2  5  1  0  0  0  0
  2  7  1  0  0  0  0
  3  4  2  0  0  0  0
  3 12  1  0  0  0  0
  4  6  1  0  0  0  0
  4 28  1  0  0  0  0
  5  6  2  0  0  0  0
  5 33  1  0  0  0  0
  6 36  1  0  0  0  0
  7 24  2  0  0  0  0
  7 35  1  0  0  0  0
  8 13  1  0  0  0  0
  8 27  1  0  0  0  0
  8 29  2  0  0  0  0
  9 20  1  0  0  0  0
  9 25  1  0  0  0  0
  9 30  2  0  0  0  0
 10 20  1  0  0  0  0
 10 26  1  0  0  0  0
 10 31  2  0  0  0  0
 11 25  1  0  0  0  0
 11 26  1  0  0  0  0
 11 32  2  0  0  0  0
 12 20  1  0  0  0  0
 13 14  1  0  0  0  0
 14 17  1  0  0  0  0
 15 18  1  0  0  0  0
 15 28  1  0  0  0  0
 16 19  1  0  0  0  0
 16 20  1  0  0  0  0
 16 28  1  0  0  0  0
 17 23  1  0  0  0  0
 17 27  1  0  0  0  0
 18 21  1  0  0  0  0
 18 34  1  0  0  0  0
 19 22  1  0  0  0  0
 19 34  1  0  0  0  0
 23 35  1  0  0  0  0
 24 33  1  0  0  0  0
  1 37  1  0  0  0  0
 12 38  1  0  0  0  0
 12 39  1  0  0  0  0
 13 40  1  0  0  0  0
 13 41  1  0  0  0  0
 14 42  1  0  0  0  0
 14 43  1  0  0  0  0
 15 44  1  0  0  0  0
 15 45  1  0  0  0  0
 16 46  1  0  0  0  0
 17 47  1  0  0  0  0
 18 48  1  0  0  0  0
 19 49  1  0  0  0  0
 21 50  1  0  0  0  0
 21 51  1  0  0  0  0
 21 52  1  0  0  0  0
 22 53  1  0  0  0  0
 22 54  1  0  0  0  0
 22 55  1  0  0  0  0
 23 56  1  0  0  0  0
 23 57  1  0  0  0  0
 25 58  1  0  0  0  0
 26 59  1  0  0  0  0
 27 60  1  0  0  0  0
M  END
> <SMILES>
C[C@@H]1CN2[C@H]([C@H](C)O1)C1(Cc3cc4c(noc4c(c32)F)OC[C@@H]2CCC(=O)N2)C(=O)NC(=O)NC1=O

> <FORMATTED_ID>
H3D-005722

> <MOLFORMULA>
C23H24FN5O7

> <Exact Mass>
501.17

> <XLogP>
0.26

> <TPSA_NOPS>
152.4

> <s_m_source_file>
ligprep_h3d.sdf

> <i_m_source_file_index>
874

> <i_lp_mmshare_version>
55123

> <i_f3d_flags>
0

> <s_epik_input>
Tz1DMVtOSF1DKD1PKVtOSF1DKD1PKUMxMltDQEBIXTNOKFtDSDJdW0NAQEhdKFtDSDNdKU9bQ0BIXTNbQ0gzXSljNGMoW0NIMl0yKVtjSF1jNWMoYzRGKW9uYzVPW0NIMl1bQ0BASF02W0NIMl1bQ0gyXUMoPU8pW05IXTY=

> <s_epik_cmdline>
J2VwaWtfcHl0aG9uJywgJy1waHQnLCAnMC41JywgJy1waCcsICc3LjUnLCAnLXRuJywgJzgnLCAnLW1hJywgJzUwMCcsICctaW1hZScsICc8aW5maWxlLm1hZT4nLCAnLW9tYWUnLCAnPG91dGZpbGUubWFlPic=

> <r_lp_tautomer_probability>
1

> <r_epik_Ionization_Penalty>
0.369127

> <r_epik_Ionization_Penalty_Charging>
0

> <r_epik_Ionization_Penalty_Neutral>
0.369127

> <r_epik_State_Penalty>
0.366447

> <r_epik_Charging_Adjusted_Penalty>
0.366447

> <i_epik_Tot_Q>
0

> <i_epik_Tot_abs_Q>
0

> <s_lp_Force_Field>
S-OPLS

> <r_lp_Energy>
37.0226

> <b_lp_Chiralities_Consistent>
1

> <s_lp_Variant>
ligprep_h3d.sdf:874-1

> <ROCS_ShapeQuery>
_7L13

> <ROCS_TanimotoCombo>
0.758 

> <ROCS_ShapeTanimoto>
0.679 

> <ROCS_ColorTanimoto>
0.079 

> <ROCS_RefTversky>
0.818 

> <ROCS_RefColorTversky>
0.197 

> <ROCS_RefTverskyCombo>
1.015 

> <ROCS_FitTversky>
0.800 

> <ROCS_FitColorTversky>
0.117 

> <ROCS_FitTverskyCombo>
0.918 

> <ROCS_ColorScore>
-1.843

> <ROCS_Overlap>
1359.667

> <ROCS_Rank>
59                  

$$$$
ligprep_h3d.sdf:5324_637
  -OEChem-08212117123D

 67 72  0     0  0  0  0  0  0999 V2000
  -19.4471   -6.3578  -36.2233 C   0  0  0  0  0  0  0  0  0  0  0  0
  -20.4386   -6.9168  -35.4171 C   0  0  0  0  0  0  0  0  0  0  0  0
  -18.4312   -5.5927  -35.6502 C   0  0  0  0  0  0  0  0  0  0  0  0
  -20.4144   -6.7106  -34.0377 C   0  0  0  0  0  0  0  0  0  0  0  0
  -18.4070   -5.3865  -34.2709 C   0  0  0  0  0  0  0  0  0  0  0  0
  -22.7172   -4.2950  -29.0947 C   0  0  0  0  0  0  0  0  0  0  0  0
  -19.9161   -4.5743  -29.3015 C   0  0  0  0  0  0  0  0  0  0  0  0
  -14.7342   -6.3016  -24.9802 C   0  0  0  0  0  0  0  0  0  0  0  0
  -14.6492   -5.1203  -25.6785 C   0  0  0  0  0  0  0  0  0  0  0  0
  -21.9278   -4.3782  -27.9542 C   0  0  0  0  0  0  0  0  0  0  0  0
  -19.3986   -5.9455  -33.4646 C   0  0  0  0  0  0  0  0  0  0  0  0
  -20.5429   -4.5163  -28.0651 C   0  0  0  0  0  0  0  0  0  0  0  0
  -22.0998   -4.3519  -30.3458 C   0  0  0  0  0  0  0  0  0  0  0  0
  -20.7087   -4.4907  -30.4479 C   0  0  0  0  0  0  0  0  0  0  0  0
  -16.7418   -5.8452  -25.5540 C   0  0  0  0  0  0  0  0  0  0  0  0
  -18.1401   -5.7533  -25.8172 C   0  0  0  0  0  0  0  0  0  0  0  0
  -17.7439   -3.6681  -27.0147 C   0  0  0  0  0  0  0  0  0  0  0  0
  -16.4260   -3.7467  -26.7708 C   0  0  0  0  0  0  0  0  0  0  0  0
  -18.6472   -4.7127  -26.5194 C   0  0  0  0  0  0  0  0  0  0  0  0
  -26.5036   -4.8337  -23.0450 C   0  0  0  0  0  0  0  0  0  0  0  0
  -23.3079   -5.5190  -26.1773 C   0  0  0  0  0  0  0  0  0  0  0  0
  -23.0616   -3.0045  -26.1676 C   0  0  0  0  0  0  0  0  0  0  0  0
  -21.0055   -4.4768  -25.7694 C   0  0  0  0  0  0  0  0  0  0  0  0
  -23.8465   -5.4627  -24.7523 C   0  0  0  0  0  0  0  0  0  0  0  0
  -23.6017   -2.9662  -24.7426 C   0  0  0  0  0  0  0  0  0  0  0  0
  -22.3719   -4.3401  -26.5055 C   0  0  0  0  0  0  0  0  0  0  0  0
  -23.1038   -2.9669  -31.9979 C   0  0  0  0  0  0  0  0  0  0  0  0
  -19.3720   -5.7231  -31.9810 C   0  0  0  0  0  0  0  0  0  0  0  0
  -25.1889   -4.0770  -23.1747 C   0  0  0  0  0  0  0  0  0  0  0  0
  -16.0302   -6.7451  -24.9062 N   0  0  0  0  0  0  0  0  0  0  0  0
  -15.9366   -4.8264  -26.0474 N   0  0  0  0  0  0  0  0  0  0  0  0
  -19.9613   -4.5796  -26.7946 N   0  0  0  0  0  0  0  0  0  0  0  0
  -24.5292   -4.1364  -24.5252 N   0  3  0  0  0  0  0  0  0  0  0  0
  -27.0655   -4.7877  -21.9161 O   0  5  0  0  0  0  0  0  0  0  0  0
  -26.8702   -5.4230  -24.1021 O   0  0  0  0  0  0  0  0  0  0  0  0
  -22.8664   -4.2699  -31.4702 O   0  0  0  0  0  0  0  0  0  0  0  0
  -20.1134   -4.5449  -31.6737 O   0  0  0  0  0  0  0  0  0  0  0  0
  -19.4654   -6.5196  -37.2972 H   0  0  0  0  0  0  0  0  0  0  0  0
  -21.2290   -7.5135  -35.8630 H   0  0  0  0  0  0  0  0  0  0  0  0
  -17.6585   -5.1583  -36.2775 H   0  0  0  0  0  0  0  0  0  0  0  0
  -21.1912   -7.1499  -33.4174 H   0  0  0  0  0  0  0  0  0  0  0  0
  -17.6118   -4.7889  -33.8332 H   0  0  0  0  0  0  0  0  0  0  0  0
  -23.7948   -4.1874  -29.0179 H   0  0  0  0  0  0  0  0  0  0  0  0
  -18.8408   -4.6807  -29.3946 H   0  0  0  0  0  0  0  0  0  0  0  0
  -13.9255   -6.8556  -24.5262 H   0  0  0  0  0  0  0  0  0  0  0  0
  -13.8134   -4.4843  -25.9357 H   0  0  0  0  0  0  0  0  0  0  0  0
  -18.7867   -6.5397  -25.4402 H   0  0  0  0  0  0  0  0  0  0  0  0
  -18.1530   -2.8355  -27.5770 H   0  0  0  0  0  0  0  0  0  0  0  0
  -15.7195   -3.0010  -27.1146 H   0  0  0  0  0  0  0  0  0  0  0  0
  -22.7906   -6.4753  -26.3299 H   0  0  0  0  0  0  0  0  0  0  0  0
  -24.1604   -5.5272  -26.8699 H   0  0  0  0  0  0  0  0  0  0  0  0
  -23.8959   -2.8256  -26.8594 H   0  0  0  0  0  0  0  0  0  0  0  0
  -22.3686   -2.1656  -26.3133 H   0  0  0  0  0  0  0  0  0  0  0  0
  -20.7998   -3.6106  -25.1289 H   0  0  0  0  0  0  0  0  0  0  0  0
  -20.9747   -5.3678  -25.1306 H   0  0  0  0  0  0  0  0  0  0  0  0
  -24.5950   -6.2468  -24.5966 H   0  0  0  0  0  0  0  0  0  0  0  0
  -23.0561   -5.5638  -24.0014 H   0  0  0  0  0  0  0  0  0  0  0  0
  -22.8071   -3.0265  -23.9917 H   0  0  0  0  0  0  0  0  0  0  0  0
  -24.1837   -2.0530  -24.5801 H   0  0  0  0  0  0  0  0  0  0  0  0
  -23.7272   -3.0431  -32.8921 H   0  0  0  0  0  0  0  0  0  0  0  0
  -22.1501   -2.4935  -32.2448 H   0  0  0  0  0  0  0  0  0  0  0  0
  -23.6218   -2.3676  -31.2454 H   0  0  0  0  0  0  0  0  0  0  0  0
  -19.8148   -6.5724  -31.4495 H   0  0  0  0  0  0  0  0  0  0  0  0
  -18.3430   -5.6030  -31.6253 H   0  0  0  0  0  0  0  0  0  0  0  0
  -24.4608   -4.4772  -22.4624 H   0  0  0  0  0  0  0  0  0  0  0  0
  -25.3516   -3.0161  -22.9617 H   0  0  0  0  0  0  0  0  0  0  0  0
  -25.2849   -4.0596  -25.2200 H   0  0  0  0  0  0  0  0  0  0  0  0
  1  2  2  0  0  0  0
  1  3  1  0  0  0  0
  2  4  1  0  0  0  0
  3  5  2  0  0  0  0
  4 11  2  0  0  0  0
  5 11  1  0  0  0  0
  6 10  1  0  0  0  0
  6 13  2  0  0  0  0
  7 12  1  0  0  0  0
  7 14  2  0  0  0  0
  8  9  2  0  0  0  0
  8 30  1  0  0  0  0
  9 31  1  0  0  0  0
 10 12  2  0  0  0  0
 10 26  1  0  0  0  0
 11 28  1  0  0  0  0
 12 32  1  0  0  0  0
 13 14  1  0  0  0  0
 13 36  1  0  0  0  0
 14 37  1  0  0  0  0
 15 16  1  0  0  0  0
 15 30  2  0  0  0  0
 15 31  1  0  0  0  0
 16 19  2  0  0  0  0
 17 18  2  0  0  0  0
 17 19  1  0  0  0  0
 18 31  1  0  0  0  0
 19 32  1  0  0  0  0
 20 29  1  0  0  0  0
 20 34  1  0  0  0  0
 20 35  2  0  0  0  0
 21 24  1  0  0  0  0
 21 26  1  0  0  0  0
 22 25  1  0  0  0  0
 22 26  1  0  0  0  0
 23 26  1  0  0  0  0
 23 32  1  0  0  0  0
 24 33  1  0  0  0  0
 25 33  1  0  0  0  0
 27 36  1  0  0  0  0
 28 37  1  0  0  0  0
 29 33  1  0  0  0  0
  1 38  1  0  0  0  0
  2 39  1  0  0  0  0
  3 40  1  0  0  0  0
  4 41  1  0  0  0  0
  5 42  1  0  0  0  0
  6 43  1  0  0  0  0
  7 44  1  0  0  0  0
  8 45  1  0  0  0  0
  9 46  1  0  0  0  0
 16 47  1  0  0  0  0
 17 48  1  0  0  0  0
 18 49  1  0  0  0  0
 21 50  1  0  0  0  0
 21 51  1  0  0  0  0
 22 52  1  0  0  0  0
 22 53  1  0  0  0  0
 23 54  1  0  0  0  0
 23 55  1  0  0  0  0
 24 56  1  0  0  0  0
 24 57  1  0  0  0  0
 25 58  1  0  0  0  0
 25 59  1  0  0  0  0
 27 60  1  0  0  0  0
 27 61  1  0  0  0  0
 27 62  1  0  0  0  0
 28 63  1  0  0  0  0
 28 64  1  0  0  0  0
 29 65  1  0  0  0  0
 29 66  1  0  0  0  0
 33 67  1  0  0  0  0
M  CHG  2  33   1  34  -1
M  END
> <SMILES>
COc1cc2c(cc1OCc1ccccc1)N(CC12CCN(CC1)CC(=O)O)c1ccn2ccnc2c1

> <FORMATTED_ID>
H3D-014888

> <MOLFORMULA>
C29H30N4O4

> <Exact Mass>
498.23

> <XLogP>
5.09

> <TPSA_NOPS>
79.5

> <s_m_source_file>
ligprep_h3d.sdf

> <i_m_source_file_index>
5324

> <i_lp_mmshare_version>
55123

> <i_f3d_flags>
0

> <s_epik_input>
W2NIXTFbY0hdW2NIXVtjSF1bY0hdYzFbQ0gyXU9jKGMoW2NIXTIpT1tDSDNdKVtjSF1jKE4oW0NIMl0zKWMoW2NIXVtjSF00KVtjSF1jKG40NSluW2NIXVtjSF01KWMyQzM2W0NIMl1bQ0gyXU4oW0NIMl1bQ0gyXTYpW0NIMl1DKD1PKVtPSF0=

> <s_epik_cmdline>
J2VwaWtfcHl0aG9uJywgJy1waHQnLCAnMC41JywgJy1waCcsICc3LjUnLCAnLXRuJywgJzgnLCAnLW1hJywgJzUwMCcsICctaW1hZScsICc8aW5maWxlLm1hZT4nLCAnLW9tYWUnLCAnPG91dGZpbGUubWFlPic=

> <r_lp_tautomer_probability>
1

> <r_epik_Ionization_Penalty>
0.431155

> <r_epik_Ionization_Penalty_Charging>
0.431155

> <r_epik_Ionization_Penalty_Neutral>
3.2642e-10

> <r_epik_State_Penalty>
0.425279

> <r_epik_Charging_Adjusted_Penalty>
0.856434

> <i_epik_Tot_Q>
0

> <i_epik_Tot_abs_Q>
2

> <s_lp_Force_Field>
S-OPLS

> <r_lp_Energy>
72.502

> <b_lp_Chiralities_Consistent>
1

> <s_lp_Variant>
ligprep_h3d.sdf:5324-2

> <ROCS_ShapeQuery>
_7L13

> <ROCS_TanimotoCombo>
0.759 

> <ROCS_ShapeTanimoto>
0.673 

> <ROCS_ColorTanimoto>
0.086 

> <ROCS_RefTversky>
0.818 

> <ROCS_RefColorTversky>
0.198 

> <ROCS_RefTverskyCombo>
1.016 

> <ROCS_FitTversky>
0.792 

> <ROCS_FitColorTversky>
0.133 

> <ROCS_FitTverskyCombo>
0.924 

> <ROCS_ColorScore>
-1.831

> <ROCS_Overlap>
1360.311

> <ROCS_Rank>
60                  

$$$$
ligprep_h3d.sdf:976_1983
  -OEChem-08212117123D

 62 67  0     1  0  0  0  0  0999 V2000
  -20.9448   -5.0965  -29.5139 C   0  0  0  0  0  0  0  0  0  0  0  0
  -21.7330   -4.3473  -30.3900 C   0  0  0  0  0  0  0  0  0  0  0  0
  -21.0659   -4.8652  -28.1226 C   0  0  0  0  0  0  0  0  0  0  0  0
  -21.9834   -3.9325  -27.5834 C   0  0  0  0  0  0  0  0  0  0  0  0
  -22.6001   -3.4169  -29.8605 C   0  0  0  0  0  0  0  0  0  0  0  0
  -22.7558   -3.1753  -28.4953 C   0  0  0  0  0  0  0  0  0  0  0  0
  -21.9286   -4.2354  -31.7792 C   0  0  0  0  0  0  0  0  0  0  0  0
  -18.9048   -3.7255  -26.2396 C   0  0  0  0  0  0  0  0  0  0  0  0
  -19.5653   -7.6602  -35.5922 C   0  0  0  0  0  0  0  0  0  0  0  0
  -19.1708   -5.9516  -25.0252 C   0  0  0  0  0  0  0  0  0  0  0  0
  -17.0186   -5.0150  -25.8392 C   0  0  0  0  0  0  0  0  0  0  0  0
  -20.1912   -5.6747  -27.2031 C   0  0  0  0  0  0  0  0  0  0  0  0
  -20.0669   -8.9416  -34.9701 C   0  0  0  0  0  0  0  0  0  0  0  0
  -20.5105   -8.5052  -33.5796 C   0  0  0  0  0  0  0  0  0  0  0  0
  -23.0879   -2.8385  -25.6427 C   0  0  0  0  0  0  0  0  0  0  0  0
  -21.1853   -4.4468  -25.2417 C   0  0  2  0  0  0  0  0  0  0  0  0
  -20.9707   -7.0663  -33.7826 C   0  0  1  0  0  0  0  0  0  0  0  0
  -23.4476   -3.1765  -24.1930 C   0  0  1  0  0  0  0  0  0  0  0  0
  -21.0586   -3.5136  -24.0018 C   0  0  2  0  0  0  0  0  0  0  0  0
  -19.8448   -4.9068  -25.9035 C   0  0  2  0  0  0  0  0  0  0  0  0
  -24.3929   -4.3716  -24.0857 C   0  0  0  0  0  0  0  0  0  0  0  0
  -20.0839   -3.9576  -22.9184 C   0  0  0  0  0  0  0  0  0  0  0  0
  -19.9750   -5.2071  -35.2117 C   0  0  0  0  0  0  0  0  0  0  0  0
  -20.8953   -6.2525  -32.4998 C   0  0  0  0  0  0  0  0  0  0  0  0
  -22.8409   -3.3095  -32.0896 N   0  0  0  0  0  0  0  0  0  0  0  0
  -17.6320   -4.0313  -26.4984 N   0  5  0  0  0  0  0  0  0  0  0  0
  -17.7925   -5.8925  -25.0819 N   0  0  0  0  0  0  0  0  0  0  0  0
  -22.0981   -3.7685  -26.2008 N   0  0  3  0  0  0  0  0  0  0  0  0
  -20.0984   -6.6053  -34.8491 N   0  0  0  0  0  0  0  0  0  0  0  0
  -19.3511   -2.5859  -26.3705 O   0  0  0  0  0  0  0  0  0  0  0  0
  -18.8637   -7.6032  -36.5913 O   0  0  0  0  0  0  0  0  0  0  0  0
  -19.7782   -6.8116  -24.3912 O   0  0  0  0  0  0  0  0  0  0  0  0
  -15.7984   -5.1933  -25.8858 O   0  0  0  0  0  0  0  0  0  0  0  0
  -23.2632   -2.7909  -30.8710 O   0  0  0  0  0  0  0  0  0  0  0  0
  -22.3277   -3.4077  -23.3432 O   0  0  0  0  0  0  0  0  0  0  0  0
  -21.3320   -4.9108  -32.7704 O   0  0  0  0  0  0  0  0  0  0  0  0
  -23.5551   -2.1686  -28.1227 F   0  0  0  0  0  0  0  0  0  0  0  0
  -20.2451   -5.8347  -29.8951 H   0  0  0  0  0  0  0  0  0  0  0  0
  -20.7238   -6.6078  -26.9741 H   0  0  0  0  0  0  0  0  0  0  0  0
  -19.2705   -5.9633  -27.7272 H   0  0  0  0  0  0  0  0  0  0  0  0
  -20.8957   -9.3586  -35.5483 H   0  0  0  0  0  0  0  0  0  0  0  0
  -19.2424   -9.6603  -34.9260 H   0  0  0  0  0  0  0  0  0  0  0  0
  -21.3577   -9.1214  -33.2575 H   0  0  0  0  0  0  0  0  0  0  0  0
  -19.7131   -8.6122  -32.8405 H   0  0  0  0  0  0  0  0  0  0  0  0
  -23.9969   -2.9067  -26.2751 H   0  0  0  0  0  0  0  0  0  0  0  0
  -22.8100   -1.7734  -25.6767 H   0  0  0  0  0  0  0  0  0  0  0  0
  -21.7314   -5.3464  -24.9152 H   0  0  0  0  0  0  0  0  0  0  0  0
  -22.0202   -7.0667  -34.1540 H   0  0  0  0  0  0  0  0  0  0  0  0
  -24.0244   -2.2919  -23.7505 H   0  0  0  0  0  0  0  0  0  0  0  0
  -20.7607   -2.4935  -24.3042 H   0  0  0  0  0  0  0  0  0  0  0  0
  -23.9139   -5.2635  -24.4899 H   0  0  0  0  0  0  0  0  0  0  0  0
  -25.3066   -4.1758  -24.6470 H   0  0  0  0  0  0  0  0  0  0  0  0
  -24.6505   -4.5508  -23.0417 H   0  0  0  0  0  0  0  0  0  0  0  0
  -20.3335   -4.9640  -22.5819 H   0  0  0  0  0  0  0  0  0  0  0  0
  -20.1361   -3.2774  -22.0682 H   0  0  0  0  0  0  0  0  0  0  0  0
  -19.0663   -3.9577  -23.3095 H   0  0  0  0  0  0  0  0  0  0  0  0
  -20.8249   -4.9159  -35.8464 H   0  0  0  0  0  0  0  0  0  0  0  0
  -19.9701   -4.5911  -34.3004 H   0  0  0  0  0  0  0  0  0  0  0  0
  -19.0359   -5.0530  -35.7635 H   0  0  0  0  0  0  0  0  0  0  0  0
  -19.8677   -6.2199  -32.1257 H   0  0  0  0  0  0  0  0  0  0  0  0
  -21.5428   -6.6857  -31.7316 H   0  0  0  0  0  0  0  0  0  0  0  0
  -17.2873   -6.5616  -24.5090 H   0  0  0  0  0  0  0  0  0  0  0  0
  1  2  2  0  0  0  0
  1  3  1  0  0  0  0
  2  5  1  0  0  0  0
  2  7  1  0  0  0  0
  3  4  2  0  0  0  0
  3 12  1  0  0  0  0
  4  6  1  0  0  0  0
  4 28  1  0  0  0  0
  5  6  2  0  0  0  0
  5 34  1  0  0  0  0
  6 37  1  0  0  0  0
  7 25  2  0  0  0  0
  7 36  1  0  0  0  0
  8 20  1  0  0  0  0
  8 26  1  0  0  0  0
  8 30  2  0  0  0  0
  9 13  1  0  0  0  0
  9 29  1  0  0  0  0
  9 31  2  0  0  0  0
 10 20  1  0  0  0  0
 10 27  1  0  0  0  0
 10 32  2  0  0  0  0
 11 26  1  0  0  0  0
 11 27  1  0  0  0  0
 11 33  2  0  0  0  0
 12 20  1  0  0  0  0
 13 14  1  0  0  0  0
 14 17  1  0  0  0  0
 15 18  1  0  0  0  0
 15 28  1  0  0  0  0
 16 19  1  0  0  0  0
 16 20  1  0  0  0  0
 16 28  1  0  0  0  0
 17 24  1  0  0  0  0
 17 29  1  0  0  0  0
 18 21  1  0  0  0  0
 18 35  1  0  0  0  0
 19 22  1  0  0  0  0
 19 35  1  0  0  0  0
 23 29  1  0  0  0  0
 24 36  1  0  0  0  0
 25 34  1  0  0  0  0
  1 38  1  0  0  0  0
 12 39  1  0  0  0  0
 12 40  1  0  0  0  0
 13 41  1  0  0  0  0
 13 42  1  0  0  0  0
 14 43  1  0  0  0  0
 14 44  1  0  0  0  0
 15 45  1  0  0  0  0
 15 46  1  0  0  0  0
 16 47  1  0  0  0  0
 17 48  1  0  0  0  0
 18 49  1  0  0  0  0
 19 50  1  0  0  0  0
 21 51  1  0  0  0  0
 21 52  1  0  0  0  0
 21 53  1  0  0  0  0
 22 54  1  0  0  0  0
 22 55  1  0  0  0  0
 22 56  1  0  0  0  0
 23 57  1  0  0  0  0
 23 58  1  0  0  0  0
 23 59  1  0  0  0  0
 24 60  1  0  0  0  0
 24 61  1  0  0  0  0
 27 62  1  0  0  0  0
M  CHG  1  26  -1
M  END
> <SMILES>
C[C@@H]1CN2[C@H]([C@H](C)O1)C1(Cc3cc4c(noc4c(c32)F)OC[C@@H]2CCC(=O)N2C)C(=O)NC(=O)NC1=O

> <FORMATTED_ID>
H3D-006044

> <MOLFORMULA>
C24H26FN5O7

> <Exact Mass>
515.18

> <XLogP>
0.83

> <TPSA_NOPS>
143.6

> <s_m_source_file>
ligprep_h3d.sdf

> <i_m_source_file_index>
976

> <i_lp_mmshare_version>
55123

> <i_f3d_flags>
0

> <s_epik_input>
Tz1DMVtOSF1DKD1PKVtOSF1DKD1PKUMxMltDQEBIXTNOKFtDSDJdW0NAQEhdKFtDSDNdKU9bQ0BIXTNbQ0gzXSljNGMoW0NIMl0yKVtjSF1jNWMoYzRGKW9uYzVPW0NIMl1bQ0BASF02W0NIMl1bQ0gyXUMoPU8pTjZbQ0gzXQ==

> <s_epik_cmdline>
J2VwaWtfcHl0aG9uJywgJy1waHQnLCAnMC41JywgJy1waCcsICc3LjUnLCAnLXRuJywgJzgnLCAnLW1hJywgJzUwMCcsICctaW1hZScsICc8aW5maWxlLm1hZT4nLCAnLW9tYWUnLCAnPG91dGZpbGUubWFlPic=

> <r_lp_tautomer_probability>
1

> <r_epik_Ionization_Penalty>
0.455391

> <r_epik_Ionization_Penalty_Charging>
0.455373

> <r_epik_Ionization_Penalty_Neutral>
1.77674e-05

> <r_epik_State_Penalty>
0.458483

> <r_epik_Charging_Adjusted_Penalty>
0.913857

> <i_epik_Tot_Q>
-1

> <i_epik_Tot_abs_Q>
1

> <s_lp_Force_Field>
S-OPLS

> <r_lp_Energy>
44.8679

> <b_lp_Chiralities_Consistent>
1

> <s_lp_Variant>
ligprep_h3d.sdf:976-2

> <ROCS_ShapeQuery>
_7L13

> <ROCS_TanimotoCombo>
0.788 

> <ROCS_ShapeTanimoto>
0.664 

> <ROCS_ColorTanimoto>
0.124 

> <ROCS_RefTversky>
0.818 

> <ROCS_RefColorTversky>
0.296 

> <ROCS_RefTverskyCombo>
1.113 

> <ROCS_FitTversky>
0.780 

> <ROCS_FitColorTversky>
0.176 

> <ROCS_FitTverskyCombo>
0.956 

> <ROCS_ColorScore>
-2.764

> <ROCS_Overlap>
1361.432

> <ROCS_Rank>
61                  

$$$$
ligprep_h3d.sdf:1191_1815
  -OEChem-08212117123D

 74 78  0     0  0  0  0  0  0999 V2000
  -19.9241   -3.9167  -32.3127 C   0  0  0  0  0  0  0  0  0  0  0  0
  -20.4856   -6.2600  -32.1372 C   0  0  0  0  0  0  0  0  0  0  0  0
  -19.3778   -4.1422  -33.5762 C   0  0  0  0  0  0  0  0  0  0  0  0
  -19.9393   -6.4855  -33.4007 C   0  0  0  0  0  0  0  0  0  0  0  0
  -16.5230   -4.9166  -26.6710 C   0  0  0  0  0  0  0  0  0  0  0  0
  -22.9454   -4.1827  -28.9052 C   0  0  0  0  0  0  0  0  0  0  0  0
  -20.6367   -4.4775  -25.4623 C   0  0  0  0  0  0  0  0  0  0  0  0
  -16.9919   -6.2403  -26.5726 C   0  0  0  0  0  0  0  0  0  0  0  0
  -20.8203   -4.6141  -27.8691 C   0  0  0  0  0  0  0  0  0  0  0  0
  -20.4779   -4.9756  -31.5932 C   0  0  0  0  0  0  0  0  0  0  0  0
  -21.0443   -4.7417  -30.2826 C   0  0  0  0  0  0  0  0  0  0  0  0
  -19.3854   -5.4266  -34.1202 C   0  0  0  0  0  0  0  0  0  0  0  0
  -22.3886   -4.4108  -30.1661 C   0  0  0  0  0  0  0  0  0  0  0  0
  -20.2600   -4.8436  -29.1372 C   0  0  0  0  0  0  0  0  0  0  0  0
  -22.1845   -4.2779  -27.7432 C   0  0  0  0  0  0  0  0  0  0  0  0
  -20.0539   -4.7100  -26.6998 C   0  0  0  0  0  0  0  0  0  0  0  0
  -21.9783   -4.1545  -25.4394 C   0  0  0  0  0  0  0  0  0  0  0  0
  -17.6626   -4.1524  -26.7332 C   0  0  0  0  0  0  0  0  0  0  0  0
  -22.6504   -3.9003  -24.1768 C   0  0  0  0  0  0  0  0  0  0  0  0
  -26.2874   -4.4471  -23.1917 C   0  0  0  0  0  0  0  0  0  0  0  0
  -18.2686   -7.3914  -37.0850 C   0  0  0  0  0  0  0  0  0  0  0  0
  -20.5664   -6.9228  -36.5380 C   0  0  0  0  0  0  0  0  0  0  0  0
  -18.7068   -8.7421  -37.6439 C   0  0  0  0  0  0  0  0  0  0  0  0
  -20.9502   -8.2850  -37.1088 C   0  0  0  0  0  0  0  0  0  0  0  0
  -23.2759   -4.2867  -31.3640 C   0  0  0  0  0  0  0  0  0  0  0  0
  -18.8153   -5.2050  -29.3414 C   0  0  0  0  0  0  0  0  0  0  0  0
  -17.8329   -2.6904  -26.8443 C   0  0  0  0  0  0  0  0  0  0  0  0
  -24.9013   -2.4945  -22.6283 C   0  0  0  0  0  0  0  0  0  0  0  0
  -24.1835   -4.7259  -21.7502 C   0  0  0  0  0  0  0  0  0  0  0  0
  -18.7972   -5.6695  -35.4800 C   0  0  0  0  0  0  0  0  0  0  0  0
  -24.8251   -3.9948  -22.9307 C   0  0  0  0  0  0  0  0  0  0  0  0
  -18.3254   -6.3163  -26.5717 N   0  0  0  0  0  0  0  0  0  0  0  0
  -22.7528   -4.0517  -26.5437 N   0  0  0  0  0  0  0  0  0  0  0  0
  -18.7042   -5.0306  -26.6703 N   0  0  0  0  0  0  0  0  0  0  0  0
  -19.1912   -6.9681  -36.0223 N   0  0  0  0  0  0  0  0  0  0  0  0
  -24.0140   -4.2114  -24.1072 N   0  0  0  0  0  0  0  0  0  0  0  0
  -26.9375   -4.8426  -22.1832 O   0  5  0  0  0  0  0  0  0  0  0  0
  -22.0294   -3.4079  -23.2172 O   0  0  0  0  0  0  0  0  0  0  0  0
  -26.6662   -4.3724  -24.3974 O   0  0  0  0  0  0  0  0  0  0  0  0
  -20.0423   -8.6641  -38.1438 O   0  0  0  0  0  0  0  0  0  0  0  0
  -19.9100   -2.9099  -31.9020 H   0  0  0  0  0  0  0  0  0  0  0  0
  -20.9142   -7.0956  -31.5889 H   0  0  0  0  0  0  0  0  0  0  0  0
  -18.9474   -3.3116  -34.1292 H   0  0  0  0  0  0  0  0  0  0  0  0
  -19.9500   -7.4894  -33.8171 H   0  0  0  0  0  0  0  0  0  0  0  0
  -15.5010   -4.5675  -26.6932 H   0  0  0  0  0  0  0  0  0  0  0  0
  -24.0010   -3.9241  -28.8287 H   0  0  0  0  0  0  0  0  0  0  0  0
  -20.0653   -4.5452  -24.5406 H   0  0  0  0  0  0  0  0  0  0  0  0
  -16.4173   -7.1527  -26.5013 H   0  0  0  0  0  0  0  0  0  0  0  0
  -17.2503   -7.4826  -36.6902 H   0  0  0  0  0  0  0  0  0  0  0  0
  -18.2549   -6.6494  -37.8940 H   0  0  0  0  0  0  0  0  0  0  0  0
  -20.6533   -6.1604  -37.3232 H   0  0  0  0  0  0  0  0  0  0  0  0
  -21.2656   -6.6647  -35.7345 H   0  0  0  0  0  0  0  0  0  0  0  0
  -18.0557   -9.0291  -38.4759 H   0  0  0  0  0  0  0  0  0  0  0  0
  -18.6450   -9.5323  -36.8859 H   0  0  0  0  0  0  0  0  0  0  0  0
  -20.9650   -9.0603  -36.3329 H   0  0  0  0  0  0  0  0  0  0  0  0
  -21.9522   -8.2369  -37.5469 H   0  0  0  0  0  0  0  0  0  0  0  0
  -23.2599   -3.2584  -31.7407 H   0  0  0  0  0  0  0  0  0  0  0  0
  -22.9516   -4.9600  -32.1659 H   0  0  0  0  0  0  0  0  0  0  0  0
  -24.3099   -4.5550  -31.1178 H   0  0  0  0  0  0  0  0  0  0  0  0
  -18.6985   -6.2913  -29.3168 H   0  0  0  0  0  0  0  0  0  0  0  0
  -18.4546   -4.8284  -30.3026 H   0  0  0  0  0  0  0  0  0  0  0  0
  -18.1915   -4.7605  -28.5608 H   0  0  0  0  0  0  0  0  0  0  0  0
  -17.8748   -2.3744  -27.8995 H   0  0  0  0  0  0  0  0  0  0  0  0
  -18.7581   -2.3431  -26.3534 H   0  0  0  0  0  0  0  0  0  0  0  0
  -17.0071   -2.1398  -26.3620 H   0  0  0  0  0  0  0  0  0  0  0  0
  -23.9084   -2.0757  -22.4280 H   0  0  0  0  0  0  0  0  0  0  0  0
  -25.5313   -2.2862  -21.7554 H   0  0  0  0  0  0  0  0  0  0  0  0
  -25.3346   -1.9439  -23.4716 H   0  0  0  0  0  0  0  0  0  0  0  0
  -23.1530   -4.3875  -21.5889 H   0  0  0  0  0  0  0  0  0  0  0  0
  -24.1581   -5.8099  -21.9094 H   0  0  0  0  0  0  0  0  0  0  0  0
  -24.7346   -4.5384  -20.8211 H   0  0  0  0  0  0  0  0  0  0  0  0
  -19.1227   -4.8968  -36.1851 H   0  0  0  0  0  0  0  0  0  0  0  0
  -17.7031   -5.6388  -35.4461 H   0  0  0  0  0  0  0  0  0  0  0  0
  -24.4873   -4.5519  -24.9378 H   0  0  0  0  0  0  0  0  0  0  0  0
  1  3  1  0  0  0  0
  1 10  2  0  0  0  0
  2  4  2  0  0  0  0
  2 10  1  0  0  0  0
  3 12  2  0  0  0  0
  4 12  1  0  0  0  0
  5  8  1  0  0  0  0
  5 18  2  0  0  0  0
  6 13  2  0  0  0  0
  6 15  1  0  0  0  0
  7 16  1  0  0  0  0
  7 17  2  0  0  0  0
  8 32  2  0  0  0  0
  9 14  1  0  0  0  0
  9 15  1  0  0  0  0
  9 16  2  0  0  0  0
 10 11  1  0  0  0  0
 11 13  1  0  0  0  0
 11 14  2  0  0  0  0
 12 30  1  0  0  0  0
 13 25  1  0  0  0  0
 14 26  1  0  0  0  0
 15 33  2  0  0  0  0
 16 34  1  0  0  0  0
 17 19  1  0  0  0  0
 17 33  1  0  0  0  0
 18 27  1  0  0  0  0
 18 34  1  0  0  0  0
 19 36  1  0  0  0  0
 19 38  2  0  0  0  0
 20 31  1  0  0  0  0
 20 37  1  0  0  0  0
 20 39  2  0  0  0  0
 21 23  1  0  0  0  0
 21 35  1  0  0  0  0
 22 24  1  0  0  0  0
 22 35  1  0  0  0  0
 23 40  1  0  0  0  0
 24 40  1  0  0  0  0
 28 31  1  0  0  0  0
 29 31  1  0  0  0  0
 30 35  1  0  0  0  0
 31 36  1  0  0  0  0
 32 34  1  0  0  0  0
  1 41  1  0  0  0  0
  2 42  1  0  0  0  0
  3 43  1  0  0  0  0
  4 44  1  0  0  0  0
  5 45  1  0  0  0  0
  6 46  1  0  0  0  0
  7 47  1  0  0  0  0
  8 48  1  0  0  0  0
 21 49  1  0  0  0  0
 21 50  1  0  0  0  0
 22 51  1  0  0  0  0
 22 52  1  0  0  0  0
 23 53  1  0  0  0  0
 23 54  1  0  0  0  0
 24 55  1  0  0  0  0
 24 56  1  0  0  0  0
 25 57  1  0  0  0  0
 25 58  1  0  0  0  0
 25 59  1  0  0  0  0
 26 60  1  0  0  0  0
 26 61  1  0  0  0  0
 26 62  1  0  0  0  0
 27 63  1  0  0  0  0
 27 64  1  0  0  0  0
 27 65  1  0  0  0  0
 28 66  1  0  0  0  0
 28 67  1  0  0  0  0
 28 68  1  0  0  0  0
 29 69  1  0  0  0  0
 29 70  1  0  0  0  0
 29 71  1  0  0  0  0
 30 72  1  0  0  0  0
 30 73  1  0  0  0  0
 36 74  1  0  0  0  0
M  CHG  1  37  -1
M  END
> <SMILES>
Cc1cc2nc(cc(c2c(c1-c1ccc(cc1)CN1CCOCC1)C)-n1nccc1C)C(=O)NC(C)(C)C(=O)O

> <FORMATTED_ID>
H3D-008253

> <MOLFORMULA>
C31H35N5O4

> <Exact Mass>
541.27

> <XLogP>
3.76

> <TPSA_NOPS>
109.6

> <s_m_source_file>
ligprep_h3d.sdf

> <i_m_source_file_index>
1191

> <i_lp_mmshare_version>
55123

> <i_f3d_flags>
0

> <s_epik_input>
Tz1DKFtPSF0pQyhbQ0gzXSkoW0NIM10pW05IXUMoPU8pYyhuMSlbY0hdYygtbjJuW2NIXVtjSF1jMltDSDNdKWMoYzEzKWMoW0NIM10pYyhjKFtDSDNdKVtjSF0zKS1jNFtjSF1bY0hdYyhbY0hdW2NIXTQpW0NIMl1ONVtDSDJdW0NIMl1PW0NIMl1bQ0gyXTU=

> <s_epik_cmdline>
J2VwaWtfcHl0aG9uJywgJy1waHQnLCAnMC41JywgJy1waCcsICc3LjUnLCAnLXRuJywgJzgnLCAnLW1hJywgJzUwMCcsICctaW1hZScsICc8aW5maWxlLm1hZT4nLCAnLW9tYWUnLCAnPG91dGZpbGUubWFlPic=

> <r_lp_tautomer_probability>
1

> <r_epik_Ionization_Penalty>
0.105656

> <r_epik_Ionization_Penalty_Charging>
9.39431e-05

> <r_epik_Ionization_Penalty_Neutral>
0.105562

> <r_epik_State_Penalty>
0.095414

> <r_epik_Charging_Adjusted_Penalty>
0.095508

> <i_epik_Tot_Q>
-1

> <i_epik_Tot_abs_Q>
1

> <s_lp_Force_Field>
S-OPLS

> <r_lp_Energy>
82.6521

> <b_lp_Chiralities_Consistent>
1

> <s_lp_Variant>
ligprep_h3d.sdf:1191-1

> <ROCS_ShapeQuery>
_7L13

> <ROCS_TanimotoCombo>
0.775 

> <ROCS_ShapeTanimoto>
0.634 

> <ROCS_ColorTanimoto>
0.141 

> <ROCS_RefTversky>
0.818 

> <ROCS_RefColorTversky>
0.319 

> <ROCS_RefTverskyCombo>
1.137 

> <ROCS_FitTversky>
0.739 

> <ROCS_FitColorTversky>
0.202 

> <ROCS_FitTverskyCombo>
0.940 

> <ROCS_ColorScore>
-2.966

> <ROCS_Overlap>
1365.791

> <ROCS_Rank>
62                  

$$$$
ligprep_h3d.sdf:5116_1357
  -OEChem-08212117123D

 63 67  0     0  0  0  0  0  0999 V2000
  -18.7053   -6.4585  -35.2634 C   0  0  0  0  0  0  0  0  0  0  0  0
  -19.7401   -7.3142  -34.8857 C   0  0  0  0  0  0  0  0  0  0  0  0
  -18.6075   -5.1887  -34.6942 C   0  0  0  0  0  0  0  0  0  0  0  0
  -20.6771   -6.9001  -33.9391 C   0  0  0  0  0  0  0  0  0  0  0  0
  -19.5445   -4.7747  -33.7476 C   0  0  0  0  0  0  0  0  0  0  0  0
  -18.6424   -6.5621  -26.8279 C   0  0  0  0  0  0  0  0  0  0  0  0
  -18.0814   -4.5221  -25.6841 C   0  0  0  0  0  0  0  0  0  0  0  0
  -23.2348   -3.9352  -28.5903 C   0  0  0  0  0  0  0  0  0  0  0  0
  -20.5406   -4.5530  -29.1262 C   0  0  0  0  0  0  0  0  0  0  0  0
  -17.3574   -7.0039  -26.5571 C   0  0  0  0  0  0  0  0  0  0  0  0
  -16.8216   -5.0553  -25.4644 C   0  0  0  0  0  0  0  0  0  0  0  0
  -22.3470   -4.2233  -27.5608 C   0  0  0  0  0  0  0  0  0  0  0  0
  -20.5793   -5.6304  -33.3700 C   0  0  0  0  0  0  0  0  0  0  0  0
  -19.0034   -5.2964  -26.3796 C   0  0  0  0  0  0  0  0  0  0  0  0
  -21.0071   -4.5491  -27.8175 C   0  0  0  0  0  0  0  0  0  0  0  0
  -22.7651   -3.9538  -29.9020 C   0  0  0  0  0  0  0  0  0  0  0  0
  -21.4253   -4.2568  -30.1678 C   0  0  0  0  0  0  0  0  0  0  0  0
  -23.3988   -5.5685  -25.7271 C   0  0  0  0  0  0  0  0  0  0  0  0
  -23.3852   -3.0610  -25.5475 C   0  0  0  0  0  0  0  0  0  0  0  0
  -23.8013   -5.6281  -24.2490 C   0  0  0  0  0  0  0  0  0  0  0  0
  -23.7413   -3.2104  -24.0660 C   0  0  0  0  0  0  0  0  0  0  0  0
  -21.1554   -4.3240  -25.5340 C   0  0  0  0  0  0  0  0  0  0  0  0
  -22.6188   -4.2846  -26.0786 C   0  0  0  0  0  0  0  0  0  0  0  0
  -23.7341   -2.3049  -31.3156 C   0  0  0  0  0  0  0  0  0  0  0  0
  -21.5871   -5.1842  -32.3517 C   0  0  0  0  0  0  0  0  0  0  0  0
  -24.9404   -4.5209  -22.4392 C   0  0  0  0  0  0  0  0  0  0  0  0
  -26.1968   -5.3389  -22.2766 C   0  0  0  0  0  0  0  0  0  0  0  0
  -16.4344   -6.2805  -25.8845 N   0  0  0  0  0  0  0  0  0  0  0  0
  -20.2881   -4.8037  -26.6276 N   0  0  0  0  0  0  0  0  0  0  0  0
  -24.5371   -4.4243  -23.8419 N   0  0  0  0  0  0  0  0  0  0  0  0
  -23.6232   -3.6711  -30.9225 O   0  0  0  0  0  0  0  0  0  0  0  0
  -20.9659   -4.2696  -31.4520 O   0  0  0  0  0  0  0  0  0  0  0  0
  -26.5459   -5.4149  -20.9733 F   0  0  0  0  0  0  0  0  0  0  0  0
  -27.2327   -4.7900  -22.9462 F   0  0  0  0  0  0  0  0  0  0  0  0
  -26.0261   -6.5996  -22.7284 F   0  0  0  0  0  0  0  0  0  0  0  0
  -17.9750   -6.7816  -35.9995 H   0  0  0  0  0  0  0  0  0  0  0  0
  -19.8158   -8.3033  -35.3279 H   0  0  0  0  0  0  0  0  0  0  0  0
  -17.8014   -4.5227  -34.9872 H   0  0  0  0  0  0  0  0  0  0  0  0
  -21.4802   -7.5735  -33.6510 H   0  0  0  0  0  0  0  0  0  0  0  0
  -19.4605   -3.7836  -33.3096 H   0  0  0  0  0  0  0  0  0  0  0  0
  -19.3380   -7.1913  -27.3730 H   0  0  0  0  0  0  0  0  0  0  0  0
  -18.3304   -3.5307  -25.3205 H   0  0  0  0  0  0  0  0  0  0  0  0
  -24.2747   -3.7045  -28.3822 H   0  0  0  0  0  0  0  0  0  0  0  0
  -19.5030   -4.7888  -29.3446 H   0  0  0  0  0  0  0  0  0  0  0  0
  -17.0267   -7.9840  -26.8850 H   0  0  0  0  0  0  0  0  0  0  0  0
  -16.0660   -4.4920  -24.9266 H   0  0  0  0  0  0  0  0  0  0  0  0
  -22.8117   -6.4617  -25.9771 H   0  0  0  0  0  0  0  0  0  0  0  0
  -24.3113   -5.6246  -26.3372 H   0  0  0  0  0  0  0  0  0  0  0  0
  -24.3153   -2.9202  -26.1143 H   0  0  0  0  0  0  0  0  0  0  0  0
  -22.8024   -2.1427  -25.6944 H   0  0  0  0  0  0  0  0  0  0  0  0
  -24.4361   -6.5118  -24.1088 H   0  0  0  0  0  0  0  0  0  0  0  0
  -22.9129   -5.7730  -23.6219 H   0  0  0  0  0  0  0  0  0  0  0  0
  -22.8284   -3.2183  -23.4566 H   0  0  0  0  0  0  0  0  0  0  0  0
  -24.3213   -2.3285  -23.7676 H   0  0  0  0  0  0  0  0  0  0  0  0
  -20.8242   -3.3166  -25.2452 H   0  0  0  0  0  0  0  0  0  0  0  0
  -21.0531   -4.9654  -24.6519 H   0  0  0  0  0  0  0  0  0  0  0  0
  -24.4494   -2.2182  -32.1371 H   0  0  0  0  0  0  0  0  0  0  0  0
  -22.7551   -1.9348  -31.6302 H   0  0  0  0  0  0  0  0  0  0  0  0
  -24.0872   -1.7178  -30.4645 H   0  0  0  0  0  0  0  0  0  0  0  0
  -22.4378   -4.6897  -32.8330 H   0  0  0  0  0  0  0  0  0  0  0  0
  -21.9714   -6.0397  -31.7859 H   0  0  0  0  0  0  0  0  0  0  0  0
  -24.1113   -4.9724  -21.8864 H   0  0  0  0  0  0  0  0  0  0  0  0
  -25.0913   -3.5034  -22.0672 H   0  0  0  0  0  0  0  0  0  0  0  0
  1  2  2  0  0  0  0
  1  3  1  0  0  0  0
  2  4  1  0  0  0  0
  3  5  2  0  0  0  0
  4 13  2  0  0  0  0
  5 13  1  0  0  0  0
  6 10  1  0  0  0  0
  6 14  2  0  0  0  0
  7 11  2  0  0  0  0
  7 14  1  0  0  0  0
  8 12  1  0  0  0  0
  8 16  2  0  0  0  0
  9 15  1  0  0  0  0
  9 17  2  0  0  0  0
 10 28  2  0  0  0  0
 11 28  1  0  0  0  0
 12 15  2  0  0  0  0
 12 23  1  0  0  0  0
 13 25  1  0  0  0  0
 14 29  1  0  0  0  0
 15 29  1  0  0  0  0
 16 17  1  0  0  0  0
 16 31  1  0  0  0  0
 17 32  1  0  0  0  0
 18 20  1  0  0  0  0
 18 23  1  0  0  0  0
 19 21  1  0  0  0  0
 19 23  1  0  0  0  0
 20 30  1  0  0  0  0
 21 30  1  0  0  0  0
 22 23  1  0  0  0  0
 22 29  1  0  0  0  0
 24 31  1  0  0  0  0
 25 32  1  0  0  0  0
 26 27  1  0  0  0  0
 26 30  1  0  0  0  0
 27 33  1  0  0  0  0
 27 34  1  0  0  0  0
 27 35  1  0  0  0  0
  1 36  1  0  0  0  0
  2 37  1  0  0  0  0
  3 38  1  0  0  0  0
  4 39  1  0  0  0  0
  5 40  1  0  0  0  0
  6 41  1  0  0  0  0
  7 42  1  0  0  0  0
  8 43  1  0  0  0  0
  9 44  1  0  0  0  0
 10 45  1  0  0  0  0
 11 46  1  0  0  0  0
 18 47  1  0  0  0  0
 18 48  1  0  0  0  0
 19 49  1  0  0  0  0
 19 50  1  0  0  0  0
 20 51  1  0  0  0  0
 20 52  1  0  0  0  0
 21 53  1  0  0  0  0
 21 54  1  0  0  0  0
 22 55  1  0  0  0  0
 22 56  1  0  0  0  0
 24 57  1  0  0  0  0
 24 58  1  0  0  0  0
 24 59  1  0  0  0  0
 25 60  1  0  0  0  0
 25 61  1  0  0  0  0
 26 62  1  0  0  0  0
 26 63  1  0  0  0  0
M  END
> <SMILES>
COc1cc2c(cc1OCc1ccccc1)N(CC12CCN(CC1)CC(F)(F)F)c1ccncc1

> <FORMATTED_ID>
H3D-012645

> <MOLFORMULA>
C27H28F3N3O2

> <Exact Mass>
483.21

> <XLogP>
5.71

> <TPSA_NOPS>
37.8

> <s_m_source_file>
ligprep_h3d.sdf

> <i_m_source_file_index>
5116

> <i_lp_mmshare_version>
55123

> <i_f3d_flags>
0

> <s_epik_input>
W2NIXTFbY0hdW2NIXVtjSF1bY0hdYzFbQ0gyXU9jKGMoW2NIXTIpT1tDSDNdKVtjSF1jKGMyQzM0W0NIMl1bQ0gyXU4oW0NIMl1bQ0gyXTQpW0NIMl1DKEYpKEYpRilOKFtDSDJdMyljNVtjSF1bY0hdbltjSF1bY0hdNQ==

> <s_epik_cmdline>
J2VwaWtfcHl0aG9uJywgJy1waHQnLCAnMC41JywgJy1waCcsICc3LjUnLCAnLXRuJywgJzgnLCAnLW1hJywgJzUwMCcsICctaW1hZScsICc8aW5maWxlLm1hZT4nLCAnLW9tYWUnLCAnPG91dGZpbGUubWFlPic=

> <r_lp_tautomer_probability>
1

> <r_epik_Ionization_Penalty>
0.181433

> <r_epik_Ionization_Penalty_Charging>
0

> <r_epik_Ionization_Penalty_Neutral>
0.181433

> <r_epik_State_Penalty>
-0

> <r_epik_Charging_Adjusted_Penalty>
0

> <i_epik_Tot_Q>
0

> <i_epik_Tot_abs_Q>
0

> <s_lp_Force_Field>
S-OPLS

> <r_lp_Energy>
65.5771

> <b_lp_Chiralities_Consistent>
1

> <s_lp_Variant>
ligprep_h3d.sdf:5116-1

> <ROCS_ShapeQuery>
_7L13

> <ROCS_TanimotoCombo>
0.773 

> <ROCS_ShapeTanimoto>
0.706 

> <ROCS_ColorTanimoto>
0.067 

> <ROCS_RefTversky>
0.817 

> <ROCS_RefColorTversky>
0.126 

> <ROCS_RefTverskyCombo>
0.943 

> <ROCS_FitTversky>
0.838 

> <ROCS_FitColorTversky>
0.126 

> <ROCS_FitTverskyCombo>
0.964 

> <ROCS_ColorScore>
-1.134

> <ROCS_Overlap>
1355.489

> <ROCS_Rank>
63                  

$$$$
ligprep_h3d.sdf:1068_707
  -OEChem-08212117123D

 63 69  0     1  0  0  0  0  0999 V2000
  -21.5788   -9.8930  -35.2971 C   0  0  0  0  0  0  0  0  0  0  0  0
  -21.0384   -9.8375  -36.5771 C   0  0  0  0  0  0  0  0  0  0  0  0
  -21.2883   -8.8876  -34.3817 C   0  0  0  0  0  0  0  0  0  0  0  0
  -20.8723   -5.0557  -29.5087 C   0  0  0  0  0  0  0  0  0  0  0  0
  -20.2199   -8.7641  -36.8895 C   0  0  0  0  0  0  0  0  0  0  0  0
  -21.6893   -4.3431  -30.3886 C   0  0  0  0  0  0  0  0  0  0  0  0
  -21.0081   -4.8294  -28.1172 C   0  0  0  0  0  0  0  0  0  0  0  0
  -21.9682   -3.9388  -27.5820 C   0  0  0  0  0  0  0  0  0  0  0  0
  -22.5982   -3.4517  -29.8629 C   0  0  0  0  0  0  0  0  0  0  0  0
  -22.7690   -3.2166  -28.4983 C   0  0  0  0  0  0  0  0  0  0  0  0
  -20.4585   -7.8567  -34.7924 C   0  0  0  0  0  0  0  0  0  0  0  0
  -21.8846   -4.2410  -31.7784 C   0  0  0  0  0  0  0  0  0  0  0  0
  -18.9237   -3.6428  -26.1844 C   0  0  0  0  0  0  0  0  0  0  0  0
  -19.1293   -5.9321  -25.0168 C   0  0  0  0  0  0  0  0  0  0  0  0
  -16.9181   -5.0273  -25.7025 C   0  0  0  0  0  0  0  0  0  0  0  0
  -20.3659   -4.4735  -33.7834 C   0  0  0  0  0  0  0  0  0  0  0  0
  -20.0968   -5.5996  -27.1993 C   0  0  0  0  0  0  0  0  0  0  0  0
  -21.2511   -6.4107  -32.8746 C   0  0  0  0  0  0  0  0  0  0  0  0
  -23.1122   -2.8724  -25.6489 C   0  0  0  0  0  0  0  0  0  0  0  0
  -20.1221   -6.7501  -33.8265 C   0  0  2  0  0  0  0  0  0  0  0  0
  -21.1781   -4.4373  -25.2343 C   0  0  2  0  0  0  0  0  0  0  0  0
  -23.4712   -3.2144  -24.2001 C   0  0  1  0  0  0  0  0  0  0  0  0
  -21.0772   -3.5009  -23.9952 C   0  0  2  0  0  0  0  0  0  0  0  0
  -19.8173   -4.8540  -25.8705 C   0  0  0  0  0  0  0  0  0  0  0  0
  -24.3866   -4.4325  -24.0928 C   0  0  0  0  0  0  0  0  0  0  0  0
  -20.1012   -3.9305  -22.9063 C   0  0  0  0  0  0  0  0  0  0  0  0
  -19.9150   -7.7687  -36.0271 N   0  0  0  0  0  0  0  0  0  0  0  0
  -22.8363   -3.3569  -32.0929 N   0  0  0  0  0  0  0  0  0  0  0  0
  -17.5624   -3.9027  -26.1978 N   0  0  0  0  0  0  0  0  0  0  0  0
  -17.7468   -5.9696  -25.1103 N   0  0  0  0  0  0  0  0  0  0  0  0
  -22.0966   -3.7786  -26.2002 N   0  0  3  0  0  0  0  0  0  0  0  0
  -21.1621   -4.9795  -32.7593 N   0  0  0  0  0  0  0  0  0  0  0  0
  -19.3689   -2.5311  -26.4691 O   0  0  0  0  0  0  0  0  0  0  0  0
  -19.7557   -6.7666  -24.3623 O   0  0  0  0  0  0  0  0  0  0  0  0
  -15.6940   -5.1606  -25.7484 O   0  0  0  0  0  0  0  0  0  0  0  0
  -20.1298   -3.3112  -34.0815 O   0  0  0  0  0  0  0  0  0  0  0  0
  -23.2852   -2.8565  -30.8761 O   0  0  0  0  0  0  0  0  0  0  0  0
  -19.8458   -5.5182  -34.5129 O   0  0  0  0  0  0  0  0  0  0  0  0
  -22.3505   -3.4124  -23.3436 O   0  0  0  0  0  0  0  0  0  0  0  0
  -23.6125   -2.2437  -28.1333 F   0  0  0  0  0  0  0  0  0  0  0  0
  -22.2251  -10.7183  -35.0137 H   0  0  0  0  0  0  0  0  0  0  0  0
  -21.2512  -10.6101  -37.3070 H   0  0  0  0  0  0  0  0  0  0  0  0
  -21.7035   -8.9191  -33.3801 H   0  0  0  0  0  0  0  0  0  0  0  0
  -20.1395   -5.7636  -29.8855 H   0  0  0  0  0  0  0  0  0  0  0  0
  -19.7737   -8.6743  -37.8745 H   0  0  0  0  0  0  0  0  0  0  0  0
  -20.5689   -6.5733  -27.0081 H   0  0  0  0  0  0  0  0  0  0  0  0
  -19.1486   -5.8060  -27.7144 H   0  0  0  0  0  0  0  0  0  0  0  0
  -22.2415   -6.6584  -33.2757 H   0  0  0  0  0  0  0  0  0  0  0  0
  -21.1319   -6.8901  -31.8972 H   0  0  0  0  0  0  0  0  0  0  0  0
  -24.0161   -2.9656  -26.2861 H   0  0  0  0  0  0  0  0  0  0  0  0
  -22.8635   -1.8004  -25.6833 H   0  0  0  0  0  0  0  0  0  0  0  0
  -19.2049   -7.0343  -33.2699 H   0  0  0  0  0  0  0  0  0  0  0  0
  -21.7050   -5.3498  -24.9146 H   0  0  0  0  0  0  0  0  0  0  0  0
  -24.0730   -2.3425  -23.7647 H   0  0  0  0  0  0  0  0  0  0  0  0
  -20.7902   -2.4776  -24.3001 H   0  0  0  0  0  0  0  0  0  0  0  0
  -23.8830   -5.3138  -24.4902 H   0  0  0  0  0  0  0  0  0  0  0  0
  -25.3018   -4.2624  -24.6600 H   0  0  0  0  0  0  0  0  0  0  0  0
  -24.6456   -4.6136  -23.0494 H   0  0  0  0  0  0  0  0  0  0  0  0
  -20.3405   -4.9386  -22.5678 H   0  0  0  0  0  0  0  0  0  0  0  0
  -20.1648   -3.2484  -22.0585 H   0  0  0  0  0  0  0  0  0  0  0  0
  -19.0824   -3.9198  -23.2936 H   0  0  0  0  0  0  0  0  0  0  0  0
  -16.9710   -3.1913  -26.6166 H   0  0  0  0  0  0  0  0  0  0  0  0
  -17.2846   -6.7477  -24.6488 H   0  0  0  0  0  0  0  0  0  0  0  0
  1  2  2  0  0  0  0
  1  3  1  0  0  0  0
  2  5  1  0  0  0  0
  3 11  2  0  0  0  0
  4  6  2  0  0  0  0
  4  7  1  0  0  0  0
  5 27  2  0  0  0  0
  6  9  1  0  0  0  0
  6 12  1  0  0  0  0
  7  8  2  0  0  0  0
  7 17  1  0  0  0  0
  8 10  1  0  0  0  0
  8 31  1  0  0  0  0
  9 10  2  0  0  0  0
  9 37  1  0  0  0  0
 10 40  1  0  0  0  0
 11 20  1  0  0  0  0
 11 27  1  0  0  0  0
 12 28  2  0  0  0  0
 12 32  1  0  0  0  0
 13 24  1  0  0  0  0
 13 29  1  0  0  0  0
 13 33  2  0  0  0  0
 14 24  1  0  0  0  0
 14 30  1  0  0  0  0
 14 34  2  0  0  0  0
 15 29  1  0  0  0  0
 15 30  1  0  0  0  0
 15 35  2  0  0  0  0
 16 32  1  0  0  0  0
 16 36  2  0  0  0  0
 16 38  1  0  0  0  0
 17 24  1  0  0  0  0
 18 20  1  0  0  0  0
 18 32  1  0  0  0  0
 19 22  1  0  0  0  0
 19 31  1  0  0  0  0
 20 38  1  0  0  0  0
 21 23  1  0  0  0  0
 21 24  1  0  0  0  0
 21 31  1  0  0  0  0
 22 25  1  0  0  0  0
 22 39  1  0  0  0  0
 23 26  1  0  0  0  0
 23 39  1  0  0  0  0
 28 37  1  0  0  0  0
  1 41  1  0  0  0  0
  2 42  1  0  0  0  0
  3 43  1  0  0  0  0
  4 44  1  0  0  0  0
  5 45  1  0  0  0  0
 17 46  1  0  0  0  0
 17 47  1  0  0  0  0
 18 48  1  0  0  0  0
 18 49  1  0  0  0  0
 19 50  1  0  0  0  0
 19 51  1  0  0  0  0
 20 52  1  0  0  0  0
 21 53  1  0  0  0  0
 22 54  1  0  0  0  0
 23 55  1  0  0  0  0
 25 56  1  0  0  0  0
 25 57  1  0  0  0  0
 25 58  1  0  0  0  0
 26 59  1  0  0  0  0
 26 60  1  0  0  0  0
 26 61  1  0  0  0  0
 29 62  1  0  0  0  0
 30 63  1  0  0  0  0
M  END
> <SMILES>
C[C@@H]1CN2[C@H]([C@H](C)O1)C1(Cc3cc4c(noc4c(c32)F)N2CC(OC2=O)c2ccccn2)C(=O)NC(=O)NC1=O

> <FORMATTED_ID>
H3D-006630

> <MOLFORMULA>
C26H23FN6O7

> <Exact Mass>
550.16

> <XLogP>
0.65

> <TPSA_NOPS>
156.5

> <s_m_source_file>
ligprep_h3d.sdf

> <i_m_source_file_index>
1068

> <i_lp_mmshare_version>
55123

> <i_f3d_flags>
0

> <s_epik_input>
Tz1DMVtOSF1DKD1PKVtOSF1DKD1PKUMxMltDQEBIXTNOKFtDSDJdW0NAQEhdKFtDSDNdKU9bQ0BIXTNbQ0gzXSljNGMoW0NIMl0yKVtjSF1jNWMoYzRGKW9uYzVONltDSDJdW0NASF0oT0M2PU8pYzdbY0hdW2NIXVtjSF1bY0hdbjc=

> <s_epik_cmdline>
J2VwaWtfcHl0aG9uJywgJy1waHQnLCAnMC41JywgJy1waCcsICc3LjUnLCAnLXRuJywgJzgnLCAnLW1hJywgJzUwMCcsICctaW1hZScsICc8aW5maWxlLm1hZT4nLCAnLW9tYWUnLCAnPG91dGZpbGUubWFlPic=

> <r_lp_tautomer_probability>
1

> <r_epik_Ionization_Penalty>
0.37153

> <r_epik_Ionization_Penalty_Charging>
0

> <r_epik_Ionization_Penalty_Neutral>
0.37153

> <r_epik_State_Penalty>
0.366447

> <r_epik_Charging_Adjusted_Penalty>
0.366447

> <i_epik_Tot_Q>
0

> <i_epik_Tot_abs_Q>
0

> <s_epik_Chemistry_Notes>
This compound has an ester and may undergo hydrolysis at high or low pH.

> <s_lp_Force_Field>
S-OPLS

> <r_lp_Energy>
52.7542

> <b_lp_Chiralities_Consistent>
1

> <s_lp_Variant>
ligprep_h3d.sdf:1068-1

> <ROCS_ShapeQuery>
_7L13

> <ROCS_TanimotoCombo>
0.743 

> <ROCS_ShapeTanimoto>
0.619 

> <ROCS_ColorTanimoto>
0.123 

> <ROCS_RefTversky>
0.817 

> <ROCS_RefColorTversky>
0.294 

> <ROCS_RefTverskyCombo>
1.111 

> <ROCS_FitTversky>
0.718 

> <ROCS_FitColorTversky>
0.175 

> <ROCS_FitTverskyCombo>
0.894 

> <ROCS_ColorScore>
-2.750

> <ROCS_Overlap>
1367.792

> <ROCS_Rank>
64                  

$$$$
ligprep_h3d.sdf:4957_1704
  -OEChem-08212117123D

 66 70  0     1  0  0  0  0  0999 V2000
  -20.2808   -5.3899  -35.8990 C   0  0  0  0  0  0  0  0  0  0  0  0
  -20.2996   -7.2683  -34.3798 C   0  0  0  0  0  0  0  0  0  0  0  0
  -23.2673   -4.1502  -24.1058 C   0  0  0  0  0  0  0  0  0  0  0  0
  -25.3277   -4.9477  -25.0835 C   0  0  0  0  0  0  0  0  0  0  0  0
  -19.3793   -6.0646  -36.7222 C   0  0  0  0  0  0  0  0  0  0  0  0
  -19.3981   -7.9431  -35.2030 C   0  0  0  0  0  0  0  0  0  0  0  0
  -23.8610   -4.1636  -22.8437 C   0  0  0  0  0  0  0  0  0  0  0  0
  -25.9214   -4.9612  -23.8213 C   0  0  0  0  0  0  0  0  0  0  0  0
  -17.1507   -5.9511  -25.6432 C   0  0  0  0  0  0  0  0  0  0  0  0
  -17.3985   -3.5479  -25.6363 C   0  0  0  0  0  0  0  0  0  0  0  0
  -15.8194   -4.6037  -24.1434 C   0  0  0  0  0  0  0  0  0  0  0  0
  -20.7409   -5.9917  -34.7278 C   0  0  0  0  0  0  0  0  0  0  0  0
  -17.7597   -4.7981  -26.1385 C   0  0  0  0  0  0  0  0  0  0  0  0
  -24.0007   -4.5422  -25.2257 C   0  0  0  0  0  0  0  0  0  0  0  0
  -18.9380   -7.3412  -36.3742 C   0  0  0  0  0  0  0  0  0  0  0  0
  -25.1880   -4.5691  -22.7014 C   0  0  0  0  0  0  0  0  0  0  0  0
  -16.1806   -5.8539  -24.6456 C   0  0  0  0  0  0  0  0  0  0  0  0
  -16.4284   -3.4507  -24.6388 C   0  0  0  0  0  0  0  0  0  0  0  0
  -21.9589   -4.0929  -31.6569 C   0  0  0  0  0  0  0  0  0  0  0  0
  -22.3489   -4.2075  -29.2108 C   0  0  0  0  0  0  0  0  0  0  0  0
  -19.2826   -6.0201  -27.8218 C   0  0  0  0  0  0  0  0  0  0  0  0
  -19.2860   -3.9220  -28.0219 C   0  0  0  0  0  0  0  0  0  0  0  0
  -20.2759   -5.1352  -30.0708 C   0  0  0  0  0  0  0  0  0  0  0  0
  -21.7098   -5.0499  -28.1150 C   0  0  1  0  0  0  0  0  0  0  0  0
  -20.2339   -5.0384  -28.5432 C   0  0  0  0  0  0  0  0  0  0  0  0
  -21.7167   -5.2622  -33.8374 C   0  0  0  0  0  0  0  0  0  0  0  0
  -22.0006   -4.5359  -26.7174 C   0  0  0  0  0  0  0  0  0  0  0  0
  -21.0116   -4.4180  -32.7841 C   0  0  1  0  0  0  0  0  0  0  0  0
  -18.7341   -4.8953  -27.1414 N   0  0  0  0  0  0  0  0  0  0  0  0
  -21.5359   -4.4667  -30.3916 N   0  0  0  0  0  0  0  0  0  0  0  0
  -20.6119   -3.1303  -33.2735 N   0  0  0  0  0  0  0  0  0  0  0  0
  -23.4062   -4.5287  -26.4896 N   0  0  0  0  0  0  0  0  0  0  0  0
  -23.0283   -3.5253  -31.8867 O   0  0  0  0  0  0  0  0  0  0  0  0
  -18.0593   -7.9999  -37.1783 O   0  0  0  0  0  0  0  0  0  0  0  0
  -25.7581   -4.5820  -21.4894 F   0  0  0  0  0  0  0  0  0  0  0  0
  -15.5947   -6.9613  -24.1716 F   0  0  0  0  0  0  0  0  0  0  0  0
  -16.0802   -2.2500  -24.1579 F   0  0  0  0  0  0  0  0  0  0  0  0
  -20.6193   -4.3956  -36.1778 H   0  0  0  0  0  0  0  0  0  0  0  0
  -20.6527   -7.7451  -33.4690 H   0  0  0  0  0  0  0  0  0  0  0  0
  -22.2325   -3.8327  -24.2052 H   0  0  0  0  0  0  0  0  0  0  0  0
  -25.9086   -5.2549  -25.9494 H   0  0  0  0  0  0  0  0  0  0  0  0
  -19.0247   -5.5905  -37.6335 H   0  0  0  0  0  0  0  0  0  0  0  0
  -19.0584   -8.9373  -34.9267 H   0  0  0  0  0  0  0  0  0  0  0  0
  -23.2903   -3.8587  -21.9715 H   0  0  0  0  0  0  0  0  0  0  0  0
  -26.9546   -5.2765  -23.7100 H   0  0  0  0  0  0  0  0  0  0  0  0
  -17.4239   -6.9301  -26.0280 H   0  0  0  0  0  0  0  0  0  0  0  0
  -17.8661   -2.6430  -26.0159 H   0  0  0  0  0  0  0  0  0  0  0  0
  -15.0630   -4.5287  -23.3678 H   0  0  0  0  0  0  0  0  0  0  0  0
  -23.3589   -4.5617  -29.4383 H   0  0  0  0  0  0  0  0  0  0  0  0
  -22.3951   -3.1392  -28.9902 H   0  0  0  0  0  0  0  0  0  0  0  0
  -19.7572   -6.7292  -27.1304 H   0  0  0  0  0  0  0  0  0  0  0  0
  -18.5467   -6.5492  -28.4379 H   0  0  0  0  0  0  0  0  0  0  0  0
  -18.5625   -3.5288  -28.7382 H   0  0  0  0  0  0  0  0  0  0  0  0
  -19.7743   -3.1051  -27.4833 H   0  0  0  0  0  0  0  0  0  0  0  0
  -19.4660   -4.5655  -30.5385 H   0  0  0  0  0  0  0  0  0  0  0  0
  -20.2682   -6.1592  -30.4551 H   0  0  0  0  0  0  0  0  0  0  0  0
  -22.1282   -6.1036  -28.1837 H   0  0  0  0  0  0  0  0  0  0  0  0
  -22.3563   -4.6286  -34.4667 H   0  0  0  0  0  0  0  0  0  0  0  0
  -22.3980   -5.9846  -33.3675 H   0  0  0  0  0  0  0  0  0  0  0  0
  -21.5016   -5.2043  -26.0179 H   0  0  0  0  0  0  0  0  0  0  0  0
  -21.5963   -3.5272  -26.6544 H   0  0  0  0  0  0  0  0  0  0  0  0
  -20.1383   -4.9132  -32.3587 H   0  0  0  0  0  0  0  0  0  0  0  0
  -20.7924   -3.0728  -34.2564 H   0  0  0  0  0  0  0  0  0  0  0  0
  -21.1283   -2.4156  -32.7997 H   0  0  0  0  0  0  0  0  0  0  0  0
  -24.0400   -4.5114  -27.2930 H   0  0  0  0  0  0  0  0  0  0  0  0
  -17.8488   -8.8704  -36.8044 H   0  0  0  0  0  0  0  0  0  0  0  0
  1  5  1  0  0  0  0
  1 12  2  0  0  0  0
  2  6  2  0  0  0  0
  2 12  1  0  0  0  0
  3  7  1  0  0  0  0
  3 14  2  0  0  0  0
  4  8  2  0  0  0  0
  4 14  1  0  0  0  0
  5 15  2  0  0  0  0
  6 15  1  0  0  0  0
  7 16  2  0  0  0  0
  8 16  1  0  0  0  0
  9 13  2  0  0  0  0
  9 17  1  0  0  0  0
 10 13  1  0  0  0  0
 10 18  2  0  0  0  0
 11 17  2  0  0  0  0
 11 18  1  0  0  0  0
 12 26  1  0  0  0  0
 13 29  1  0  0  0  0
 14 32  1  0  0  0  0
 15 34  1  0  0  0  0
 16 35  1  0  0  0  0
 17 36  1  0  0  0  0
 18 37  1  0  0  0  0
 19 28  1  0  0  0  0
 19 30  1  0  0  0  0
 19 33  2  0  0  0  0
 20 24  1  0  0  0  0
 20 30  1  0  0  0  0
 21 25  1  0  0  0  0
 21 29  1  0  0  0  0
 22 25  1  0  0  0  0
 22 29  1  0  0  0  0
 23 25  1  0  0  0  0
 23 30  1  0  0  0  0
 24 25  1  0  0  0  0
 24 27  1  0  0  0  0
 26 28  1  0  0  0  0
 27 32  1  0  0  0  0
 28 31  1  0  0  0  0
  1 38  1  0  0  0  0
  2 39  1  0  0  0  0
  3 40  1  0  0  0  0
  4 41  1  0  0  0  0
  5 42  1  0  0  0  0
  6 43  1  0  0  0  0
  7 44  1  0  0  0  0
  8 45  1  0  0  0  0
  9 46  1  0  0  0  0
 10 47  1  0  0  0  0
 11 48  1  0  0  0  0
 20 49  1  0  0  0  0
 20 50  1  0  0  0  0
 21 51  1  0  0  0  0
 21 52  1  0  0  0  0
 22 53  1  0  0  0  0
 22 54  1  0  0  0  0
 23 55  1  0  0  0  0
 23 56  1  0  0  0  0
 24 57  1  0  0  0  0
 26 58  1  0  0  0  0
 26 59  1  0  0  0  0
 27 60  1  0  0  0  0
 27 61  1  0  0  0  0
 28 62  1  0  0  0  0
 31 63  1  0  0  0  0
 31 64  1  0  0  0  0
 32 65  1  0  0  0  0
 34 66  1  0  0  0  0
M  END
> <SMILES>
N[C@H](Cc1ccc(cc1)O)C(=O)N1CC(CNc2ccc(cc2)F)C2(C1)CN(C2)c1cc(cc(c1)F)F

> <FORMATTED_ID>
H3D-008559

> <MOLFORMULA>
C28H29F3N4O2

> <Exact Mass>
510.22

> <XLogP>
3.26

> <TPSA_NOPS>
81.8

> <s_m_source_file>
ligprep_h3d.sdf

> <i_m_source_file_index>
4957

> <i_lp_mmshare_version>
55123

> <i_f3d_flags>
0

> <s_epik_input>
W2NIXTFbY0hdYyhbT0hdKVtjSF1bY0hdYzFbQ0gyXVtDQEBIXShbTkgyXSlDKD1PKU4oW0NIMl0yKVtDSDJdW0NASF0oW0NIMl1bTkhdYzNbY0hdW2NIXWMoRilbY0hdW2NIXTMpQzI0W0NIMl1OKFtDSDJdNCljNVtjSF1jKEYpW2NIXWMoRilbY0hdNQ==

> <s_epik_cmdline>
J2VwaWtfcHl0aG9uJywgJy1waHQnLCAnMC41JywgJy1waCcsICc3LjUnLCAnLXRuJywgJzgnLCAnLW1hJywgJzUwMCcsICctaW1hZScsICc8aW5maWxlLm1hZT4nLCAnLW9tYWUnLCAnPG91dGZpbGUubWFlPic=

> <r_lp_tautomer_probability>
1

> <r_epik_Ionization_Penalty>
0.422705

> <r_epik_Ionization_Penalty_Charging>
0

> <r_epik_Ionization_Penalty_Neutral>
0.422705

> <r_epik_State_Penalty>
0.418901

> <r_epik_Charging_Adjusted_Penalty>
0.418901

> <i_epik_Tot_Q>
0

> <i_epik_Tot_abs_Q>
0

> <s_lp_Force_Field>
S-OPLS

> <r_lp_Energy>
29.6812

> <b_lp_Chiralities_Consistent>
1

> <s_lp_Variant>
ligprep_h3d.sdf:4957-2

> <ROCS_ShapeQuery>
_7L13

> <ROCS_TanimotoCombo>
0.735 

> <ROCS_ShapeTanimoto>
0.682 

> <ROCS_ColorTanimoto>
0.053 

> <ROCS_RefTversky>
0.817 

> <ROCS_RefColorTversky>
0.111 

> <ROCS_RefTverskyCombo>
0.928 

> <ROCS_FitTversky>
0.805 

> <ROCS_FitColorTversky>
0.093 

> <ROCS_FitTverskyCombo>
0.897 

> <ROCS_ColorScore>
-1.010

> <ROCS_Overlap>
1358.154

> <ROCS_Rank>
65                  

$$$$
ligprep_h3d.sdf:5158_659
  -OEChem-08212117123D

 70 75  0     0  0  0  0  0  0999 V2000
  -18.9510   -5.7036  -34.9052 C   0  0  0  0  0  0  0  0  0  0  0  0
  -19.8734   -6.6956  -34.5727 C   0  0  0  0  0  0  0  0  0  0  0  0
  -18.9992   -4.4642  -34.2668 C   0  0  0  0  0  0  0  0  0  0  0  0
  -20.8441   -6.4484  -33.6019 C   0  0  0  0  0  0  0  0  0  0  0  0
  -19.9698   -4.2170  -33.2961 C   0  0  0  0  0  0  0  0  0  0  0  0
  -23.6870   -4.1013  -28.0892 C   0  0  0  0  0  0  0  0  0  0  0  0
  -20.9434   -4.3682  -28.6662 C   0  0  0  0  0  0  0  0  0  0  0  0
  -15.1635   -5.1501  -25.8264 C   0  0  0  0  0  0  0  0  0  0  0  0
  -15.0589   -6.4188  -25.3191 C   0  0  0  0  0  0  0  0  0  0  0  0
  -22.7650   -4.3511  -27.0797 C   0  0  0  0  0  0  0  0  0  0  0  0
  -20.8923   -5.2090  -32.9636 C   0  0  0  0  0  0  0  0  0  0  0  0
  -21.3994   -4.4867  -27.3582 C   0  0  0  0  0  0  0  0  0  0  0  0
  -23.2289   -3.9912  -29.4013 C   0  0  0  0  0  0  0  0  0  0  0  0
  -21.8651   -4.1229  -29.6880 C   0  0  0  0  0  0  0  0  0  0  0  0
  -17.2080   -5.9726  -25.5771 C   0  0  0  0  0  0  0  0  0  0  0  0
  -18.6948   -5.9843  -25.6279 C   0  0  0  0  0  0  0  0  0  0  0  0
  -18.4564   -3.7346  -26.5106 C   0  0  0  0  0  0  0  0  0  0  0  0
  -17.1111   -3.7506  -26.4545 C   0  0  0  0  0  0  0  0  0  0  0  0
  -19.2990   -4.8688  -26.0921 C   0  0  0  0  0  0  0  0  0  0  0  0
  -25.9471   -3.9788  -22.5713 C   0  0  0  0  0  0  0  0  0  0  0  0
  -23.3694   -3.0828  -25.0020 C   0  0  0  0  0  0  0  0  0  0  0  0
  -24.1082   -5.4874  -25.2531 C   0  0  0  0  0  0  0  0  0  0  0  0
  -23.7399   -3.1501  -23.5186 C   0  0  0  0  0  0  0  0  0  0  0  0
  -24.4188   -5.5165  -23.7583 C   0  0  0  0  0  0  0  0  0  0  0  0
  -21.6038   -4.9478  -25.1059 C   0  0  0  0  0  0  0  0  0  0  0  0
  -23.0080   -4.4633  -25.5938 C   0  0  0  0  0  0  0  0  0  0  0  0
  -24.3907   -2.3808  -30.7100 C   0  0  0  0  0  0  0  0  0  0  0  0
  -21.9363   -4.9423  -31.9194 C   0  0  0  0  0  0  0  0  0  0  0  0
  -26.1967   -2.5885  -22.0432 C   0  0  0  0  0  0  0  0  0  0  0  0
  -16.5100   -4.8940  -25.9788 N   0  0  0  0  0  0  0  0  0  0  0  0
  -16.3383   -6.9031  -25.1755 N   0  3  0  0  0  0  0  0  0  0  0  0
  -20.6438   -4.7328  -26.1954 N   0  0  0  0  0  0  0  0  0  0  0  0
  -24.7550   -4.1791  -23.2683 N   0  0  0  0  0  0  0  0  0  0  0  0
  -27.4871   -2.4742  -21.3369 N   0  3  0  0  0  0  0  0  0  0  0  0
  -26.7887   -4.8585  -22.3713 O   0  0  0  0  0  0  0  0  0  0  0  0
  -24.1222   -3.7468  -30.4014 O   0  0  0  0  0  0  0  0  0  0  0  0
  -21.4196   -4.0108  -30.9720 O   0  0  0  0  0  0  0  0  0  0  0  0
  -18.1945   -5.8967  -35.6601 H   0  0  0  0  0  0  0  0  0  0  0  0
  -19.8354   -7.6611  -35.0688 H   0  0  0  0  0  0  0  0  0  0  0  0
  -18.2805   -3.6920  -34.5246 H   0  0  0  0  0  0  0  0  0  0  0  0
  -21.5589   -7.2272  -33.3494 H   0  0  0  0  0  0  0  0  0  0  0  0
  -19.9998   -3.2484  -32.8041 H   0  0  0  0  0  0  0  0  0  0  0  0
  -24.7420   -3.9830  -27.8632 H   0  0  0  0  0  0  0  0  0  0  0  0
  -19.8900   -4.4681  -28.9084 H   0  0  0  0  0  0  0  0  0  0  0  0
  -14.4593   -4.3882  -26.1020 H   0  0  0  0  0  0  0  0  0  0  0  0
  -14.2512   -7.0629  -25.0329 H   0  0  0  0  0  0  0  0  0  0  0  0
  -19.2360   -6.8630  -25.2996 H   0  0  0  0  0  0  0  0  0  0  0  0
  -18.9590   -2.8457  -26.8815 H   0  0  0  0  0  0  0  0  0  0  0  0
  -16.4834   -2.9233  -26.7591 H   0  0  0  0  0  0  0  0  0  0  0  0
  -24.2219   -2.6556  -25.5479 H   0  0  0  0  0  0  0  0  0  0  0  0
  -22.5398   -2.3764  -25.1348 H   0  0  0  0  0  0  0  0  0  0  0  0
  -23.8195   -6.4921  -25.5870 H   0  0  0  0  0  0  0  0  0  0  0  0
  -25.0337   -5.2449  -25.7919 H   0  0  0  0  0  0  0  0  0  0  0  0
  -22.8669   -3.4081  -22.9092 H   0  0  0  0  0  0  0  0  0  0  0  0
  -24.0707   -2.1628  -23.1910 H   0  0  0  0  0  0  0  0  0  0  0  0
  -25.2378   -6.2178  -23.5690 H   0  0  0  0  0  0  0  0  0  0  0  0
  -23.5535   -5.8679  -23.1847 H   0  0  0  0  0  0  0  0  0  0  0  0
  -21.2774   -4.4250  -24.1999 H   0  0  0  0  0  0  0  0  0  0  0  0
  -21.6207   -6.0202  -24.8704 H   0  0  0  0  0  0  0  0  0  0  0  0
  -25.1182   -2.3265  -31.5236 H   0  0  0  0  0  0  0  0  0  0  0  0
  -23.4628   -1.8833  -31.0028 H   0  0  0  0  0  0  0  0  0  0  0  0
  -24.8010   -1.8903  -29.8241 H   0  0  0  0  0  0  0  0  0  0  0  0
  -22.8441   -4.5269  -32.3702 H   0  0  0  0  0  0  0  0  0  0  0  0
  -22.2111   -5.8671  -31.4008 H   0  0  0  0  0  0  0  0  0  0  0  0
  -26.2166   -1.8862  -22.8710 H   0  0  0  0  0  0  0  0  0  0  0  0
  -25.4127   -2.3233  -21.3408 H   0  0  0  0  0  0  0  0  0  0  0  0
  -16.5829   -7.8231  -24.8196 H   0  0  0  0  0  0  0  0  0  0  0  0
  -27.3663   -2.5588  -20.3191 H   0  0  0  0  0  0  0  0  0  0  0  0
  -28.1423   -3.2099  -21.6329 H   0  0  0  0  0  0  0  0  0  0  0  0
  -27.9362   -1.5674  -21.5209 H   0  0  0  0  0  0  0  0  0  0  0  0
  1  2  2  0  0  0  0
  1  3  1  0  0  0  0
  2  4  1  0  0  0  0
  3  5  2  0  0  0  0
  4 11  2  0  0  0  0
  5 11  1  0  0  0  0
  6 10  1  0  0  0  0
  6 13  2  0  0  0  0
  7 12  1  0  0  0  0
  7 14  2  0  0  0  0
  8  9  2  0  0  0  0
  8 30  1  0  0  0  0
  9 31  1  0  0  0  0
 10 12  2  0  0  0  0
 10 26  1  0  0  0  0
 11 28  1  0  0  0  0
 12 32  1  0  0  0  0
 13 14  1  0  0  0  0
 13 36  1  0  0  0  0
 14 37  1  0  0  0  0
 15 16  1  0  0  0  0
 15 30  1  0  0  0  0
 15 31  2  0  0  0  0
 16 19  2  0  0  0  0
 17 18  2  0  0  0  0
 17 19  1  0  0  0  0
 18 30  1  0  0  0  0
 19 32  1  0  0  0  0
 20 29  1  0  0  0  0
 20 33  1  0  0  0  0
 20 35  2  0  0  0  0
 21 23  1  0  0  0  0
 21 26  1  0  0  0  0
 22 24  1  0  0  0  0
 22 26  1  0  0  0  0
 23 33  1  0  0  0  0
 24 33  1  0  0  0  0
 25 26  1  0  0  0  0
 25 32  1  0  0  0  0
 27 36  1  0  0  0  0
 28 37  1  0  0  0  0
 29 34  1  0  0  0  0
  1 38  1  0  0  0  0
  2 39  1  0  0  0  0
  3 40  1  0  0  0  0
  4 41  1  0  0  0  0
  5 42  1  0  0  0  0
  6 43  1  0  0  0  0
  7 44  1  0  0  0  0
  8 45  1  0  0  0  0
  9 46  1  0  0  0  0
 16 47  1  0  0  0  0
 17 48  1  0  0  0  0
 18 49  1  0  0  0  0
 21 50  1  0  0  0  0
 21 51  1  0  0  0  0
 22 52  1  0  0  0  0
 22 53  1  0  0  0  0
 23 54  1  0  0  0  0
 23 55  1  0  0  0  0
 24 56  1  0  0  0  0
 24 57  1  0  0  0  0
 25 58  1  0  0  0  0
 25 59  1  0  0  0  0
 27 60  1  0  0  0  0
 27 61  1  0  0  0  0
 27 62  1  0  0  0  0
 28 63  1  0  0  0  0
 28 64  1  0  0  0  0
 29 65  1  0  0  0  0
 29 66  1  0  0  0  0
 31 67  1  0  0  0  0
 34 68  1  0  0  0  0
 34 69  1  0  0  0  0
 34 70  1  0  0  0  0
M  CHG  2  31   1  34   1
M  END
> <SMILES>
COc1cc2c(cc1OCc1ccccc1)N(CC12CCN(CC1)C(=O)CN)c1ccn2ccnc2c1

> <FORMATTED_ID>
H3D-013973

> <MOLFORMULA>
C29H31N5O3

> <Exact Mass>
497.24

> <XLogP>
4.95

> <TPSA_NOPS>
85.3

> <s_m_source_file>
ligprep_h3d.sdf

> <i_m_source_file_index>
5158

> <i_lp_mmshare_version>
55123

> <i_f3d_flags>
0

> <s_epik_input>
W2NIXTFbY0hdW2NIXVtjSF1bY0hdYzFbQ0gyXU9jKGMoW2NIXTIpT1tDSDNdKVtjSF1jKE4oW0NIMl0zKWMoW2NIXVtjSF00KVtjSF1jKG40NSluW2NIXVtjSF01KWMyQzM2W0NIMl1bQ0gyXU4oW0NIMl1bQ0gyXTYpQyg9TylbQ0gyXVtOSDJd

> <s_epik_cmdline>
J2VwaWtfcHl0aG9uJywgJy1waHQnLCAnMC41JywgJy1waCcsICc3LjUnLCAnLXRuJywgJzgnLCAnLW1hJywgJzUwMCcsICctaW1hZScsICc8aW5maWxlLm1hZT4nLCAnLW9tYWUnLCAnPG91dGZpbGUubWFlPic=

> <r_lp_tautomer_probability>
1

> <r_epik_Ionization_Penalty>
0.611762

> <r_epik_Ionization_Penalty_Charging>
0.274254

> <r_epik_Ionization_Penalty_Neutral>
0.337508

> <r_epik_State_Penalty>
0.59852

> <r_epik_Charging_Adjusted_Penalty>
0.872774

> <i_epik_Tot_Q>
2

> <i_epik_Tot_abs_Q>
2

> <s_lp_Force_Field>
S-OPLS

> <r_lp_Energy>
71.9764

> <b_lp_Chiralities_Consistent>
1

> <s_lp_Variant>
ligprep_h3d.sdf:5158-1

> <ROCS_ShapeQuery>
_7L13

> <ROCS_TanimotoCombo>
0.774 

> <ROCS_ShapeTanimoto>
0.672 

> <ROCS_ColorTanimoto>
0.102 

> <ROCS_RefTversky>
0.817 

> <ROCS_RefColorTversky>
0.223 

> <ROCS_RefTverskyCombo>
1.040 

> <ROCS_FitTversky>
0.791 

> <ROCS_FitColorTversky>
0.160 

> <ROCS_FitTverskyCombo>
0.950 

> <ROCS_ColorScore>
-2.048

> <ROCS_Overlap>
1359.462

> <ROCS_Rank>
66                  

$$$$
ligprep_h3d.sdf:5012_1719
  -OEChem-08212117123D

 66 70  0     1  0  0  0  0  0999 V2000
  -18.0435   -8.0051  -37.2342 C   0  0  0  0  0  0  0  0  0  0  0  0
  -19.4090   -6.0394  -36.7326 C   0  0  0  0  0  0  0  0  0  0  0  0
  -19.4246   -7.9217  -35.2181 C   0  0  0  0  0  0  0  0  0  0  0  0
  -20.3106   -5.3677  -35.9070 C   0  0  0  0  0  0  0  0  0  0  0  0
  -20.3261   -7.2499  -34.3924 C   0  0  0  0  0  0  0  0  0  0  0  0
  -23.2713   -4.1520  -24.1057 C   0  0  0  0  0  0  0  0  0  0  0  0
  -25.3336   -4.9490  -25.0799 C   0  0  0  0  0  0  0  0  0  0  0  0
  -23.8620   -4.1680  -22.8422 C   0  0  0  0  0  0  0  0  0  0  0  0
  -25.9242   -4.9650  -23.8164 C   0  0  0  0  0  0  0  0  0  0  0  0
  -17.1573   -5.9465  -25.6609 C   0  0  0  0  0  0  0  0  0  0  0  0
  -17.4066   -3.5435  -25.6491 C   0  0  0  0  0  0  0  0  0  0  0  0
  -15.8233   -4.6010  -24.1619 C   0  0  0  0  0  0  0  0  0  0  0  0
  -18.9660   -7.3165  -36.3881 C   0  0  0  0  0  0  0  0  0  0  0  0
  -20.7691   -5.9729  -34.7370 C   0  0  0  0  0  0  0  0  0  0  0  0
  -17.7681   -4.7930  -26.1527 C   0  0  0  0  0  0  0  0  0  0  0  0
  -24.0071   -4.5424  -25.2246 C   0  0  0  0  0  0  0  0  0  0  0  0
  -25.1884   -4.5746  -22.6975 C   0  0  0  0  0  0  0  0  0  0  0  0
  -16.1849   -5.8505  -24.6655 C   0  0  0  0  0  0  0  0  0  0  0  0
  -16.4341   -3.4475  -24.6537 C   0  0  0  0  0  0  0  0  0  0  0  0
  -21.9809   -4.0803  -31.6598 C   0  0  0  0  0  0  0  0  0  0  0  0
  -22.3651   -4.1996  -29.2130 C   0  0  0  0  0  0  0  0  0  0  0  0
  -19.2943   -6.0129  -27.8346 C   0  0  0  0  0  0  0  0  0  0  0  0
  -19.2994   -3.9144  -28.0309 C   0  0  0  0  0  0  0  0  0  0  0  0
  -20.2935   -5.1245  -30.0796 C   0  0  0  0  0  0  0  0  0  0  0  0
  -21.7228   -5.0436  -28.1203 C   0  0  1  0  0  0  0  0  0  0  0  0
  -20.2479   -5.0304  -28.5519 C   0  0  0  0  0  0  0  0  0  0  0  0
  -21.7432   -5.2455  -33.8430 C   0  0  0  0  0  0  0  0  0  0  0  0
  -22.0106   -4.5322  -26.7210 C   0  0  0  0  0  0  0  0  0  0  0  0
  -21.0361   -4.4028  -32.7898 C   0  0  1  0  0  0  0  0  0  0  0  0
  -17.2942   -8.5646  -37.9215 N   0  0  0  0  0  0  0  0  0  0  0  0
  -18.7449   -4.8889  -27.1535 N   0  0  0  0  0  0  0  0  0  0  0  0
  -21.5546   -4.4561  -30.3962 N   0  0  0  0  0  0  0  0  0  0  0  0
  -20.6383   -3.1140  -33.2779 N   0  0  0  0  0  0  0  0  0  0  0  0
  -23.4157   -4.5263  -26.4899 N   0  0  0  0  0  0  0  0  0  0  0  0
  -23.0512   -3.5130  -31.8860 O   0  0  0  0  0  0  0  0  0  0  0  0
  -25.7556   -4.5900  -21.4842 F   0  0  0  0  0  0  0  0  0  0  0  0
  -15.5972   -6.9584  -24.1948 F   0  0  0  0  0  0  0  0  0  0  0  0
  -16.0855   -2.2474  -24.1715 F   0  0  0  0  0  0  0  0  0  0  0  0
  -19.0622   -5.5553  -37.6425 H   0  0  0  0  0  0  0  0  0  0  0  0
  -19.0875   -8.9161  -34.9347 H   0  0  0  0  0  0  0  0  0  0  0  0
  -20.6510   -4.3734  -36.1838 H   0  0  0  0  0  0  0  0  0  0  0  0
  -20.6765   -7.7285  -33.4817 H   0  0  0  0  0  0  0  0  0  0  0  0
  -22.2369   -3.8337  -24.2070 H   0  0  0  0  0  0  0  0  0  0  0  0
  -25.9163   -5.2550  -25.9450 H   0  0  0  0  0  0  0  0  0  0  0  0
  -23.2894   -3.8644  -21.9709 H   0  0  0  0  0  0  0  0  0  0  0  0
  -26.9570   -5.2812  -23.7032 H   0  0  0  0  0  0  0  0  0  0  0  0
  -17.4309   -6.9249  -26.0469 H   0  0  0  0  0  0  0  0  0  0  0  0
  -17.8755   -2.6382  -26.0259 H   0  0  0  0  0  0  0  0  0  0  0  0
  -15.0650   -4.5269  -23.3879 H   0  0  0  0  0  0  0  0  0  0  0  0
  -23.3753   -4.5539  -29.4387 H   0  0  0  0  0  0  0  0  0  0  0  0
  -22.4113   -3.1317  -28.9904 H   0  0  0  0  0  0  0  0  0  0  0  0
  -19.7669   -6.7234  -27.1433 H   0  0  0  0  0  0  0  0  0  0  0  0
  -18.5596   -6.5404  -28.4534 H   0  0  0  0  0  0  0  0  0  0  0  0
  -18.5779   -3.5195  -28.7481 H   0  0  0  0  0  0  0  0  0  0  0  0
  -19.7870   -3.0987  -27.4896 H   0  0  0  0  0  0  0  0  0  0  0  0
  -19.4850   -4.5535  -30.5482 H   0  0  0  0  0  0  0  0  0  0  0  0
  -20.2861   -6.1478  -30.4657 H   0  0  0  0  0  0  0  0  0  0  0  0
  -22.1407   -6.0974  -28.1898 H   0  0  0  0  0  0  0  0  0  0  0  0
  -22.3847   -4.6113  -34.4697 H   0  0  0  0  0  0  0  0  0  0  0  0
  -22.4230   -5.9692  -33.3727 H   0  0  0  0  0  0  0  0  0  0  0  0
  -21.5096   -5.2015  -26.0239 H   0  0  0  0  0  0  0  0  0  0  0  0
  -21.6067   -3.5234  -26.6572 H   0  0  0  0  0  0  0  0  0  0  0  0
  -20.1615   -4.8983  -32.3674 H   0  0  0  0  0  0  0  0  0  0  0  0
  -20.8212   -3.0548  -34.2602 H   0  0  0  0  0  0  0  0  0  0  0  0
  -21.1540   -2.4005  -32.8016 H   0  0  0  0  0  0  0  0  0  0  0  0
  -24.0513   -4.5079  -27.2917 H   0  0  0  0  0  0  0  0  0  0  0  0
  1 13  1  0  0  0  0
  1 30  3  0  0  0  0
  2  4  1  0  0  0  0
  2 13  2  0  0  0  0
  3  5  2  0  0  0  0
  3 13  1  0  0  0  0
  4 14  2  0  0  0  0
  5 14  1  0  0  0  0
  6  8  1  0  0  0  0
  6 16  2  0  0  0  0
  7  9  2  0  0  0  0
  7 16  1  0  0  0  0
  8 17  2  0  0  0  0
  9 17  1  0  0  0  0
 10 15  2  0  0  0  0
 10 18  1  0  0  0  0
 11 15  1  0  0  0  0
 11 19  2  0  0  0  0
 12 18  2  0  0  0  0
 12 19  1  0  0  0  0
 14 27  1  0  0  0  0
 15 31  1  0  0  0  0
 16 34  1  0  0  0  0
 17 36  1  0  0  0  0
 18 37  1  0  0  0  0
 19 38  1  0  0  0  0
 20 29  1  0  0  0  0
 20 32  1  0  0  0  0
 20 35  2  0  0  0  0
 21 25  1  0  0  0  0
 21 32  1  0  0  0  0
 22 26  1  0  0  0  0
 22 31  1  0  0  0  0
 23 26  1  0  0  0  0
 23 31  1  0  0  0  0
 24 26  1  0  0  0  0
 24 32  1  0  0  0  0
 25 26  1  0  0  0  0
 25 28  1  0  0  0  0
 27 29  1  0  0  0  0
 28 34  1  0  0  0  0
 29 33  1  0  0  0  0
  2 39  1  0  0  0  0
  3 40  1  0  0  0  0
  4 41  1  0  0  0  0
  5 42  1  0  0  0  0
  6 43  1  0  0  0  0
  7 44  1  0  0  0  0
  8 45  1  0  0  0  0
  9 46  1  0  0  0  0
 10 47  1  0  0  0  0
 11 48  1  0  0  0  0
 12 49  1  0  0  0  0
 21 50  1  0  0  0  0
 21 51  1  0  0  0  0
 22 52  1  0  0  0  0
 22 53  1  0  0  0  0
 23 54  1  0  0  0  0
 23 55  1  0  0  0  0
 24 56  1  0  0  0  0
 24 57  1  0  0  0  0
 25 58  1  0  0  0  0
 27 59  1  0  0  0  0
 27 60  1  0  0  0  0
 28 61  1  0  0  0  0
 28 62  1  0  0  0  0
 29 63  1  0  0  0  0
 33 64  1  0  0  0  0
 33 65  1  0  0  0  0
 34 66  1  0  0  0  0
M  END
> <SMILES>
N[C@H](Cc1ccc(cc1)C#N)C(=O)N1CC(CNc2ccc(cc2)F)C2(C1)CN(C2)c1cc(cc(c1)F)F

> <FORMATTED_ID>
H3D-009058

> <MOLFORMULA>
C29H28F3N5O

> <Exact Mass>
519.22

> <XLogP>
3.36

> <TPSA_NOPS>
85.4

> <s_m_source_file>
ligprep_h3d.sdf

> <i_m_source_file_index>
5012

> <i_lp_mmshare_version>
55123

> <i_f3d_flags>
0

> <s_epik_input>
W2NIXTFbY0hdYyhDI04pW2NIXVtjSF1jMVtDSDJdW0NAQEhdKFtOSDJdKUMoPU8pTihbQ0gyXTIpW0NIMl1bQ0BIXShbQ0gyXVtOSF1jM1tjSF1bY0hdYyhGKVtjSF1bY0hdMylDMjRbQ0gyXU4oW0NIMl00KWM1W2NIXWMoRilbY0hdYyhGKVtjSF01

> <s_epik_cmdline>
J2VwaWtfcHl0aG9uJywgJy1waHQnLCAnMC41JywgJy1waCcsICc3LjUnLCAnLXRuJywgJzgnLCAnLW1hJywgJzUwMCcsICctaW1hZScsICc8aW5maWxlLm1hZT4nLCAnLW9tYWUnLCAnPG91dGZpbGUubWFlPic=

> <r_epik_Ionization_Penalty>
0.345243

> <r_epik_Ionization_Penalty_Charging>
0

> <r_epik_Ionization_Penalty_Neutral>
0.345243

> <r_epik_State_Penalty>
0.338767

> <r_epik_Charging_Adjusted_Penalty>
0.338767

> <i_epik_Tot_Q>
0

> <i_epik_Tot_abs_Q>
0

> <s_lp_Force_Field>
S-OPLS

> <r_lp_Energy>
35.6038

> <b_lp_Chiralities_Consistent>
1

> <s_lp_Variant>
ligprep_h3d.sdf:5012-1

> <ROCS_ShapeQuery>
_7L13

> <ROCS_TanimotoCombo>
0.725 

> <ROCS_ShapeTanimoto>
0.669 

> <ROCS_ColorTanimoto>
0.056 

> <ROCS_RefTversky>
0.817 

> <ROCS_RefColorTversky>
0.112 

> <ROCS_RefTverskyCombo>
0.929 

> <ROCS_FitTversky>
0.787 

> <ROCS_FitColorTversky>
0.101 

> <ROCS_FitTverskyCombo>
0.889 

> <ROCS_ColorScore>
-1.010

> <ROCS_Overlap>
1359.397

> <ROCS_Rank>
67                  

$$$$
ligprep_h3d.sdf:590_1214
  -OEChem-08212117123D

 76 81  0     1  0  0  0  0  0999 V2000
  -20.1722   -3.8955  -32.2700 C   0  0  0  0  0  0  0  0  0  0  0  0
  -20.5304   -6.2743  -32.0462 C   0  0  0  0  0  0  0  0  0  0  0  0
  -19.6365   -4.0959  -33.5422 C   0  0  0  0  0  0  0  0  0  0  0  0
  -19.9947   -6.4747  -33.3185 C   0  0  0  0  0  0  0  0  0  0  0  0
  -16.7594   -5.7253  -26.5789 C   0  0  0  0  0  0  0  0  0  0  0  0
  -23.0855   -4.3560  -28.7899 C   0  0  0  0  0  0  0  0  0  0  0  0
  -20.6857   -4.3977  -25.3973 C   0  0  0  0  0  0  0  0  0  0  0  0
  -16.6988   -4.3248  -26.7087 C   0  0  0  0  0  0  0  0  0  0  0  0
  -20.9095   -4.5901  -27.7969 C   0  0  0  0  0  0  0  0  0  0  0  0
  -20.6191   -4.9848  -31.5220 C   0  0  0  0  0  0  0  0  0  0  0  0
  -21.1745   -4.7769  -30.2024 C   0  0  0  0  0  0  0  0  0  0  0  0
  -19.5478   -5.3854  -34.0665 C   0  0  0  0  0  0  0  0  0  0  0  0
  -22.5390   -4.5580  -30.0597 C   0  0  0  0  0  0  0  0  0  0  0  0
  -20.3597   -4.7932  -29.0740 C   0  0  0  0  0  0  0  0  0  0  0  0
  -22.2941   -4.3674  -27.6446 C   0  0  0  0  0  0  0  0  0  0  0  0
  -20.1124   -4.6014  -26.6443 C   0  0  0  0  0  0  0  0  0  0  0  0
  -22.0489   -4.1879  -25.3483 C   0  0  0  0  0  0  0  0  0  0  0  0
  -18.1027   -6.0084  -26.5373 C   0  0  0  0  0  0  0  0  0  0  0  0
  -22.7124   -3.9697  -24.0744 C   0  0  0  0  0  0  0  0  0  0  0  0
  -18.3343   -7.2997  -37.0264 C   0  0  0  0  0  0  0  0  0  0  0  0
  -20.6509   -7.0162  -36.4335 C   0  0  0  0  0  0  0  0  0  0  0  0
  -25.6257   -2.9297  -22.7941 C   0  0  0  0  0  0  0  0  0  0  0  0
  -26.8588   -4.6772  -21.6068 C   0  0  0  0  0  0  0  0  0  0  0  0
  -18.6692   -8.6916  -37.5546 C   0  0  0  0  0  0  0  0  0  0  0  0
  -20.9310   -8.4152  -36.9747 C   0  0  0  0  0  0  0  0  0  0  0  0
  -24.8375   -4.2263  -22.7864 C   0  0  1  0  0  0  0  0  0  0  0  0
  -25.9252   -5.2758  -22.6394 C   0  0  2  0  0  0  0  0  0  0  0  0
  -23.4595   -4.5292  -31.2385 C   0  0  0  0  0  0  0  0  0  0  0  0
  -18.8945   -5.0357  -29.3061 C   0  0  0  0  0  0  0  0  0  0  0  0
  -18.8081   -7.2989  -26.4104 C   0  0  0  0  0  0  0  0  0  0  0  0
  -18.9710   -5.6011  -35.4357 C   0  0  0  0  0  0  0  0  0  0  0  0
  -17.9075   -3.7578  -26.7473 N   0  0  0  0  0  0  0  0  0  0  0  0
  -22.8532   -4.1693  -26.4358 N   0  0  0  0  0  0  0  0  0  0  0  0
  -18.7403   -4.8072  -26.6412 N   0  0  0  0  0  0  0  0  0  0  0  0
  -19.2658   -6.9373  -35.9491 N   0  0  0  0  0  0  0  0  0  0  0  0
  -24.0432   -4.3928  -23.9686 N   0  0  0  0  0  0  0  0  0  0  0  0
  -26.7364   -3.1901  -21.8156 N   0  3  0  0  0  0  0  0  0  0  0  0
  -22.1143   -3.4106  -23.1370 O   0  0  0  0  0  0  0  0  0  0  0  0
  -20.0171   -8.7344  -38.0245 O   0  0  0  0  0  0  0  0  0  0  0  0
  -26.6041   -5.4037  -23.8115 F   0  0  0  0  0  0  0  0  0  0  0  0
  -20.2340   -2.8843  -31.8750 H   0  0  0  0  0  0  0  0  0  0  0  0
  -20.8751   -7.1335  -31.4756 H   0  0  0  0  0  0  0  0  0  0  0  0
  -19.2897   -3.2415  -34.1175 H   0  0  0  0  0  0  0  0  0  0  0  0
  -19.9299   -7.4828  -33.7193 H   0  0  0  0  0  0  0  0  0  0  0  0
  -15.9419   -6.4292  -26.5237 H   0  0  0  0  0  0  0  0  0  0  0  0
  -24.1571   -4.1856  -28.6930 H   0  0  0  0  0  0  0  0  0  0  0  0
  -20.0907   -4.4016  -24.4882 H   0  0  0  0  0  0  0  0  0  0  0  0
  -15.8242   -3.6940  -26.7770 H   0  0  0  0  0  0  0  0  0  0  0  0
  -17.3035   -7.2984  -36.6539 H   0  0  0  0  0  0  0  0  0  0  0  0
  -18.4007   -6.5730  -37.8466 H   0  0  0  0  0  0  0  0  0  0  0  0
  -20.8188   -6.2772  -37.2279 H   0  0  0  0  0  0  0  0  0  0  0  0
  -21.3517   -6.8041  -35.6180 H   0  0  0  0  0  0  0  0  0  0  0  0
  -25.0584   -2.0610  -22.4500 H   0  0  0  0  0  0  0  0  0  0  0  0
  -26.1024   -2.7236  -23.7583 H   0  0  0  0  0  0  0  0  0  0  0  0
  -27.9070   -4.9512  -21.7476 H   0  0  0  0  0  0  0  0  0  0  0  0
  -26.5281   -4.8740  -20.5830 H   0  0  0  0  0  0  0  0  0  0  0  0
  -18.0145   -8.9371  -38.3970 H   0  0  0  0  0  0  0  0  0  0  0  0
  -18.5246   -9.4609  -36.7864 H   0  0  0  0  0  0  0  0  0  0  0  0
  -20.8635   -9.1758  -36.1870 H   0  0  0  0  0  0  0  0  0  0  0  0
  -21.9428   -8.4588  -37.3902 H   0  0  0  0  0  0  0  0  0  0  0  0
  -24.1650   -4.2539  -21.9194 H   0  0  0  0  0  0  0  0  0  0  0  0
  -25.5460   -6.2600  -22.3513 H   0  0  0  0  0  0  0  0  0  0  0  0
  -23.5384   -3.5096  -31.6310 H   0  0  0  0  0  0  0  0  0  0  0  0
  -23.0972   -5.1864  -32.0375 H   0  0  0  0  0  0  0  0  0  0  0  0
  -24.4616   -4.8790  -30.9645 H   0  0  0  0  0  0  0  0  0  0  0  0
  -18.6860   -6.1078  -29.2678 H   0  0  0  0  0  0  0  0  0  0  0  0
  -18.5877   -4.6465  -30.2809 H   0  0  0  0  0  0  0  0  0  0  0  0
  -18.2934   -4.5273  -28.5469 H   0  0  0  0  0  0  0  0  0  0  0  0
  -18.9862   -7.5519  -25.3524 H   0  0  0  0  0  0  0  0  0  0  0  0
  -19.7859   -7.2879  -26.9216 H   0  0  0  0  0  0  0  0  0  0  0  0
  -18.2375   -8.1284  -26.8621 H   0  0  0  0  0  0  0  0  0  0  0  0
  -19.3757   -4.8706  -36.1446 H   0  0  0  0  0  0  0  0  0  0  0  0
  -17.8829   -5.4782  -35.4276 H   0  0  0  0  0  0  0  0  0  0  0  0
  -24.5040   -4.7858  -24.7828 H   0  0  0  0  0  0  0  0  0  0  0  0
  -26.5401   -2.7256  -20.9183 H   0  0  0  0  0  0  0  0  0  0  0  0
  -27.6205   -2.7930  -22.1622 H   0  0  0  0  0  0  0  0  0  0  0  0
  1  3  1  0  0  0  0
  1 10  2  0  0  0  0
  2  4  2  0  0  0  0
  2 10  1  0  0  0  0
  3 12  2  0  0  0  0
  4 12  1  0  0  0  0
  5  8  1  0  0  0  0
  5 18  2  0  0  0  0
  6 13  2  0  0  0  0
  6 15  1  0  0  0  0
  7 16  1  0  0  0  0
  7 17  2  0  0  0  0
  8 32  2  0  0  0  0
  9 14  1  0  0  0  0
  9 15  1  0  0  0  0
  9 16  2  0  0  0  0
 10 11  1  0  0  0  0
 11 13  1  0  0  0  0
 11 14  2  0  0  0  0
 12 31  1  0  0  0  0
 13 28  1  0  0  0  0
 14 29  1  0  0  0  0
 15 33  2  0  0  0  0
 16 34  1  0  0  0  0
 17 19  1  0  0  0  0
 17 33  1  0  0  0  0
 18 30  1  0  0  0  0
 18 34  1  0  0  0  0
 19 36  1  0  0  0  0
 19 38  2  0  0  0  0
 20 24  1  0  0  0  0
 20 35  1  0  0  0  0
 21 25  1  0  0  0  0
 21 35  1  0  0  0  0
 22 26  1  0  0  0  0
 22 37  1  0  0  0  0
 23 27  1  0  0  0  0
 23 37  1  0  0  0  0
 24 39  1  0  0  0  0
 25 39  1  0  0  0  0
 26 27  1  0  0  0  0
 26 36  1  0  0  0  0
 27 40  1  0  0  0  0
 31 35  1  0  0  0  0
 32 34  1  0  0  0  0
  1 41  1  0  0  0  0
  2 42  1  0  0  0  0
  3 43  1  0  0  0  0
  4 44  1  0  0  0  0
  5 45  1  0  0  0  0
  6 46  1  0  0  0  0
  7 47  1  0  0  0  0
  8 48  1  0  0  0  0
 20 49  1  0  0  0  0
 20 50  1  0  0  0  0
 21 51  1  0  0  0  0
 21 52  1  0  0  0  0
 22 53  1  0  0  0  0
 22 54  1  0  0  0  0
 23 55  1  0  0  0  0
 23 56  1  0  0  0  0
 24 57  1  0  0  0  0
 24 58  1  0  0  0  0
 25 59  1  0  0  0  0
 25 60  1  0  0  0  0
 26 61  1  0  0  0  0
 27 62  1  0  0  0  0
 28 63  1  0  0  0  0
 28 64  1  0  0  0  0
 28 65  1  0  0  0  0
 29 66  1  0  0  0  0
 29 67  1  0  0  0  0
 29 68  1  0  0  0  0
 30 69  1  0  0  0  0
 30 70  1  0  0  0  0
 30 71  1  0  0  0  0
 31 72  1  0  0  0  0
 31 73  1  0  0  0  0
 36 74  1  0  0  0  0
 37 75  1  0  0  0  0
 37 76  1  0  0  0  0
M  CHG  1  37   1
M  END
> <SMILES>
Cc1cc2nc(cc(c2c(c1-c1ccc(cc1)CN1CCOCC1)C)-n1nccc1C)C(=O)N[C@H]1CNC[C@H]1F

> <FORMATTED_ID>
H3D-004373

> <MOLFORMULA>
C31H35FN6O2

> <Exact Mass>
542.28

> <XLogP>
3.22

> <TPSA_NOPS>
84.3

> <s_m_source_file>
ligprep_h3d.sdf

> <i_m_source_file_index>
590

> <i_lp_mmshare_version>
55123

> <i_f3d_flags>
0

> <s_epik_input>
W0NIMl0xW0NIMl1PW0NIMl1bQ0gyXU4xW0NIMl1jKFtjSF1bY0hdMilbY0hdW2NIXWMyLWMoYyhbQ0gzXSlbY0hdMyljKFtDSDNdKWMoYzM0KWMoLW41bltjSF1bY0hdYzVbQ0gzXSlbY0hdYyhuNClDKD1PKVtOSF1bQ0BIXTZbQ0gyXVtOSF1bQ0gyXVtDQEhdNkY=

> <s_epik_cmdline>
J2VwaWtfcHl0aG9uJywgJy1waHQnLCAnMC41JywgJy1waCcsICc3LjUnLCAnLXRuJywgJzgnLCAnLW1hJywgJzUwMCcsICctaW1hZScsICc8aW5maWxlLm1hZT4nLCAnLW9tYWUnLCAnPG91dGZpbGUubWFlPic=

> <r_lp_tautomer_probability>
1

> <r_epik_Ionization_Penalty>
0.119516

> <r_epik_Ionization_Penalty_Charging>
0.0139022

> <r_epik_Ionization_Penalty_Neutral>
0.105613

> <r_epik_State_Penalty>
-0

> <r_epik_Charging_Adjusted_Penalty>
0.0139022

> <i_epik_Tot_Q>
1

> <i_epik_Tot_abs_Q>
1

> <s_lp_Force_Field>
S-OPLS

> <r_lp_Energy>
78.8362

> <b_lp_Chiralities_Consistent>
1

> <s_lp_Variant>
ligprep_h3d.sdf:590-1

> <ROCS_ShapeQuery>
_7L13

> <ROCS_TanimotoCombo>
0.729 

> <ROCS_ShapeTanimoto>
0.632 

> <ROCS_ColorTanimoto>
0.097 

> <ROCS_RefTversky>
0.817 

> <ROCS_RefColorTversky>
0.220 

> <ROCS_RefTverskyCombo>
1.037 

> <ROCS_FitTversky>
0.736 

> <ROCS_FitColorTversky>
0.148 

> <ROCS_FitTverskyCombo>
0.884 

> <ROCS_ColorScore>
-2.033

> <ROCS_Overlap>
1364.871

> <ROCS_Rank>
68                  

$$$$
ligprep_h3d.sdf:5188_1292
  -OEChem-08212117123D

 75 80  0     0  0  0  0  0  0999 V2000
  -18.9638   -5.7180  -34.9208 C   0  0  0  0  0  0  0  0  0  0  0  0
  -19.8794   -6.7141  -34.5819 C   0  0  0  0  0  0  0  0  0  0  0  0
  -19.0179   -4.4762  -34.2876 C   0  0  0  0  0  0  0  0  0  0  0  0
  -20.8492   -6.4685  -33.6098 C   0  0  0  0  0  0  0  0  0  0  0  0
  -19.9876   -4.2307  -33.3156 C   0  0  0  0  0  0  0  0  0  0  0  0
  -23.6928   -4.1151  -28.1001 C   0  0  0  0  0  0  0  0  0  0  0  0
  -20.9491   -4.3680  -28.6827 C   0  0  0  0  0  0  0  0  0  0  0  0
  -15.2013   -6.5129  -25.2911 C   0  0  0  0  0  0  0  0  0  0  0  0
  -15.2197   -5.2368  -25.8027 C   0  0  0  0  0  0  0  0  0  0  0  0
  -22.7669   -4.3550  -27.0919 C   0  0  0  0  0  0  0  0  0  0  0  0
  -20.9033   -5.2268  -32.9766 C   0  0  0  0  0  0  0  0  0  0  0  0
  -21.4012   -4.4836  -27.3731 C   0  0  0  0  0  0  0  0  0  0  0  0
  -23.2385   -4.0078  -29.4139 C   0  0  0  0  0  0  0  0  0  0  0  0
  -21.8747   -4.1326  -29.7033 C   0  0  0  0  0  0  0  0  0  0  0  0
  -17.2702   -6.0457  -25.5554 C   0  0  0  0  0  0  0  0  0  0  0  0
  -18.6911   -5.9644  -25.6406 C   0  0  0  0  0  0  0  0  0  0  0  0
  -18.4749   -3.7086  -26.5371 C   0  0  0  0  0  0  0  0  0  0  0  0
  -17.1363   -3.7767  -26.4596 C   0  0  0  0  0  0  0  0  0  0  0  0
  -19.2954   -4.8477  -26.1106 C   0  0  0  0  0  0  0  0  0  0  0  0
  -25.9402   -3.9826  -22.5773 C   0  0  0  0  0  0  0  0  0  0  0  0
  -23.3739   -3.0815  -25.0181 C   0  0  0  0  0  0  0  0  0  0  0  0
  -24.0988   -5.4915  -25.2572 C   0  0  0  0  0  0  0  0  0  0  0  0
  -23.7404   -3.1447  -23.5335 C   0  0  0  0  0  0  0  0  0  0  0  0
  -24.4056   -5.5161  -23.7615 C   0  0  0  0  0  0  0  0  0  0  0  0
  -21.5973   -4.9363  -25.1184 C   0  0  0  0  0  0  0  0  0  0  0  0
  -23.0056   -4.4624  -25.6049 C   0  0  0  0  0  0  0  0  0  0  0  0
  -26.4233   -3.4283  -19.7199 C   0  0  0  0  0  0  0  0  0  0  0  0
  -27.3385   -1.1961  -20.3369 C   0  0  0  0  0  0  0  0  0  0  0  0
  -24.4132   -2.4100  -30.7265 C   0  0  0  0  0  0  0  0  0  0  0  0
  -21.9464   -4.9619  -31.9310 C   0  0  0  0  0  0  0  0  0  0  0  0
  -26.1968   -2.5915  -22.0545 C   0  0  0  0  0  0  0  0  0  0  0  0
  -16.4717   -7.0081  -25.1402 N   0  0  0  0  0  0  0  0  0  0  0  0
  -16.5465   -4.9359  -25.9729 N   0  0  0  0  0  0  0  0  0  0  0  0
  -20.6412   -4.7202  -26.2111 N   0  0  0  0  0  0  0  0  0  0  0  0
  -24.7486   -4.1787  -23.2764 N   0  0  0  0  0  0  0  0  0  0  0  0
  -27.0184   -2.5899  -20.8289 N   0  3  0  0  0  0  0  0  0  0  0  0
  -26.7761   -4.8664  -22.3715 O   0  0  0  0  0  0  0  0  0  0  0  0
  -24.1357   -3.7730  -30.4128 O   0  0  0  0  0  0  0  0  0  0  0  0
  -21.4329   -4.0233  -30.9889 O   0  0  0  0  0  0  0  0  0  0  0  0
  -18.2079   -5.9098  -35.6768 H   0  0  0  0  0  0  0  0  0  0  0  0
  -19.8368   -7.6814  -35.0740 H   0  0  0  0  0  0  0  0  0  0  0  0
  -18.3045   -3.7008  -34.5505 H   0  0  0  0  0  0  0  0  0  0  0  0
  -21.5586   -7.2506  -33.3523 H   0  0  0  0  0  0  0  0  0  0  0  0
  -20.0222   -3.2602  -32.8276 H   0  0  0  0  0  0  0  0  0  0  0  0
  -24.7479   -4.0022  -27.8721 H   0  0  0  0  0  0  0  0  0  0  0  0
  -19.8956   -4.4625  -28.9271 H   0  0  0  0  0  0  0  0  0  0  0  0
  -14.3353   -7.1005  -25.0234 H   0  0  0  0  0  0  0  0  0  0  0  0
  -14.4311   -4.5399  -26.0513 H   0  0  0  0  0  0  0  0  0  0  0  0
  -19.2751   -6.8214  -25.3192 H   0  0  0  0  0  0  0  0  0  0  0  0
  -18.9618   -2.8152  -26.9131 H   0  0  0  0  0  0  0  0  0  0  0  0
  -16.4883   -2.9629  -26.7614 H   0  0  0  0  0  0  0  0  0  0  0  0
  -24.2302   -2.6618  -25.5637 H   0  0  0  0  0  0  0  0  0  0  0  0
  -22.5488   -2.3708  -25.1559 H   0  0  0  0  0  0  0  0  0  0  0  0
  -23.8048   -6.4959  -25.5875 H   0  0  0  0  0  0  0  0  0  0  0  0
  -25.0270   -5.2569  -25.7948 H   0  0  0  0  0  0  0  0  0  0  0  0
  -22.8643   -3.3948  -22.9251 H   0  0  0  0  0  0  0  0  0  0  0  0
  -24.0762   -2.1580  -23.2093 H   0  0  0  0  0  0  0  0  0  0  0  0
  -25.2199   -6.2216  -23.5672 H   0  0  0  0  0  0  0  0  0  0  0  0
  -23.5367   -5.8599  -23.1885 H   0  0  0  0  0  0  0  0  0  0  0  0
  -21.2719   -4.4077  -24.2154 H   0  0  0  0  0  0  0  0  0  0  0  0
  -21.6072   -6.0078  -24.8783 H   0  0  0  0  0  0  0  0  0  0  0  0
  -25.4550   -2.9976  -19.4585 H   0  0  0  0  0  0  0  0  0  0  0  0
  -27.1095   -3.3957  -18.8714 H   0  0  0  0  0  0  0  0  0  0  0  0
  -26.3111   -4.4473  -20.0949 H   0  0  0  0  0  0  0  0  0  0  0  0
  -26.3956   -0.7035  -20.0927 H   0  0  0  0  0  0  0  0  0  0  0  0
  -27.8601   -0.6703  -21.1389 H   0  0  0  0  0  0  0  0  0  0  0  0
  -27.9720   -1.2912  -19.4529 H   0  0  0  0  0  0  0  0  0  0  0  0
  -25.1430   -2.3636  -31.5385 H   0  0  0  0  0  0  0  0  0  0  0  0
  -23.4890   -1.9082  -31.0237 H   0  0  0  0  0  0  0  0  0  0  0  0
  -24.8242   -1.9182  -29.8417 H   0  0  0  0  0  0  0  0  0  0  0  0
  -22.8577   -4.5538  -32.3813 H   0  0  0  0  0  0  0  0  0  0  0  0
  -22.2143   -5.8861  -31.4078 H   0  0  0  0  0  0  0  0  0  0  0  0
  -26.7320   -2.0171  -22.8045 H   0  0  0  0  0  0  0  0  0  0  0  0
  -25.2508   -2.1152  -21.8169 H   0  0  0  0  0  0  0  0  0  0  0  0
  -27.9327   -3.0260  -21.0504 H   0  0  0  0  0  0  0  0  0  0  0  0
  1  2  2  0  0  0  0
  1  3  1  0  0  0  0
  2  4  1  0  0  0  0
  3  5  2  0  0  0  0
  4 11  2  0  0  0  0
  5 11  1  0  0  0  0
  6 10  1  0  0  0  0
  6 13  2  0  0  0  0
  7 12  1  0  0  0  0
  7 14  2  0  0  0  0
  8  9  2  0  0  0  0
  8 32  1  0  0  0  0
  9 33  1  0  0  0  0
 10 12  2  0  0  0  0
 10 26  1  0  0  0  0
 11 30  1  0  0  0  0
 12 34  1  0  0  0  0
 13 14  1  0  0  0  0
 13 38  1  0  0  0  0
 14 39  1  0  0  0  0
 15 16  1  0  0  0  0
 15 32  2  0  0  0  0
 15 33  1  0  0  0  0
 16 19  2  0  0  0  0
 17 18  2  0  0  0  0
 17 19  1  0  0  0  0
 18 33  1  0  0  0  0
 19 34  1  0  0  0  0
 20 31  1  0  0  0  0
 20 35  1  0  0  0  0
 20 37  2  0  0  0  0
 21 23  1  0  0  0  0
 21 26  1  0  0  0  0
 22 24  1  0  0  0  0
 22 26  1  0  0  0  0
 23 35  1  0  0  0  0
 24 35  1  0  0  0  0
 25 26  1  0  0  0  0
 25 34  1  0  0  0  0
 27 36  1  0  0  0  0
 28 36  1  0  0  0  0
 29 38  1  0  0  0  0
 30 39  1  0  0  0  0
 31 36  1  0  0  0  0
  1 40  1  0  0  0  0
  2 41  1  0  0  0  0
  3 42  1  0  0  0  0
  4 43  1  0  0  0  0
  5 44  1  0  0  0  0
  6 45  1  0  0  0  0
  7 46  1  0  0  0  0
  8 47  1  0  0  0  0
  9 48  1  0  0  0  0
 16 49  1  0  0  0  0
 17 50  1  0  0  0  0
 18 51  1  0  0  0  0
 21 52  1  0  0  0  0
 21 53  1  0  0  0  0
 22 54  1  0  0  0  0
 22 55  1  0  0  0  0
 23 56  1  0  0  0  0
 23 57  1  0  0  0  0
 24 58  1  0  0  0  0
 24 59  1  0  0  0  0
 25 60  1  0  0  0  0
 25 61  1  0  0  0  0
 27 62  1  0  0  0  0
 27 63  1  0  0  0  0
 27 64  1  0  0  0  0
 28 65  1  0  0  0  0
 28 66  1  0  0  0  0
 28 67  1  0  0  0  0
 29 68  1  0  0  0  0
 29 69  1  0  0  0  0
 29 70  1  0  0  0  0
 30 71  1  0  0  0  0
 30 72  1  0  0  0  0
 31 73  1  0  0  0  0
 31 74  1  0  0  0  0
 36 75  1  0  0  0  0
M  CHG  1  36   1
M  END
> <SMILES>
COc1cc2c(cc1OCc1ccccc1)N(CC12CCN(CC1)C(=O)CN(C)C)c1ccn2ccnc2c1

> <FORMATTED_ID>
H3D-014005

> <MOLFORMULA>
C31H35N5O3

> <Exact Mass>
525.27

> <XLogP>
5.8

> <TPSA_NOPS>
62.5

> <s_m_source_file>
ligprep_h3d.sdf

> <i_m_source_file_index>
5188

> <i_lp_mmshare_version>
55123

> <i_f3d_flags>
0

> <s_epik_input>
W2NIXTFbY0hdW2NIXVtjSF1bY0hdYzFbQ0gyXU9jKGMoW2NIXTIpT1tDSDNdKVtjSF1jKE4oW0NIMl0zKWMoW2NIXVtjSF00KVtjSF1jKG40NSluW2NIXVtjSF01KWMyQzM2W0NIMl1bQ0gyXU4oW0NIMl1bQ0gyXTYpQyg9TylbQ0gyXU4oW0NIM10pW0NIM10=

> <s_epik_cmdline>
J2VwaWtfcHl0aG9uJywgJy1waHQnLCAnMC41JywgJy1waCcsICc3LjUnLCAnLXRuJywgJzgnLCAnLW1hJywgJzUwMCcsICctaW1hZScsICc8aW5maWxlLm1hZT4nLCAnLW9tYWUnLCAnPG91dGZpbGUubWFlPic=

> <r_lp_tautomer_probability>
1

> <r_epik_Ionization_Penalty>
0.600126

> <r_epik_Ionization_Penalty_Charging>
0.600126

> <r_epik_Ionization_Penalty_Neutral>
6.41734e-09

> <r_epik_State_Penalty>
0.597817

> <r_epik_Charging_Adjusted_Penalty>
1.19794

> <i_epik_Tot_Q>
1

> <i_epik_Tot_abs_Q>
1

> <s_lp_Force_Field>
S-OPLS

> <r_lp_Energy>
74.2509

> <b_lp_Chiralities_Consistent>
1

> <s_lp_Variant>
ligprep_h3d.sdf:5188-2

> <ROCS_ShapeQuery>
_7L13

> <ROCS_TanimotoCombo>
0.755 

> <ROCS_ShapeTanimoto>
0.648 

> <ROCS_ColorTanimoto>
0.108 

> <ROCS_RefTversky>
0.817 

> <ROCS_RefColorTversky>
0.224 

> <ROCS_RefTverskyCombo>
1.041 

> <ROCS_FitTversky>
0.758 

> <ROCS_FitColorTversky>
0.172 

> <ROCS_FitTverskyCombo>
0.930 

> <ROCS_ColorScore>
-2.048

> <ROCS_Overlap>
1362.260

> <ROCS_Rank>
69                  

$$$$
ligprep_h3d.sdf:5342_1472
  -OEChem-08212117123D

 70 75  0     0  0  0  0  0  0999 V2000
  -19.3186   -7.1705  -34.0255 C   0  0  0  0  0  0  0  0  0  0  0  0
  -19.5037   -4.7845  -34.3568 C   0  0  0  0  0  0  0  0  0  0  0  0
  -19.3494   -7.3647  -35.4063 C   0  0  0  0  0  0  0  0  0  0  0  0
  -19.5343   -4.9787  -35.7378 C   0  0  0  0  0  0  0  0  0  0  0  0
  -22.7020   -4.2985  -29.0960 C   0  0  0  0  0  0  0  0  0  0  0  0
  -19.8999   -4.5503  -29.3225 C   0  0  0  0  0  0  0  0  0  0  0  0
  -14.5352   -4.9555  -25.7995 C   0  0  0  0  0  0  0  0  0  0  0  0
  -14.5104   -6.1342  -25.1010 C   0  0  0  0  0  0  0  0  0  0  0  0
  -21.9049   -4.3844  -27.9612 C   0  0  0  0  0  0  0  0  0  0  0  0
  -19.3958   -5.8804  -33.5007 C   0  0  0  0  0  0  0  0  0  0  0  0
  -20.5195   -4.5089  -28.0819 C   0  0  0  0  0  0  0  0  0  0  0  0
  -22.0920   -4.3389  -30.3514 C   0  0  0  0  0  0  0  0  0  0  0  0
  -20.7004   -4.4640  -30.4633 C   0  0  0  0  0  0  0  0  0  0  0  0
  -19.4572   -6.2688  -36.2625 C   0  0  0  0  0  0  0  0  0  0  0  0
  -16.6106   -5.7236  -25.6534 C   0  0  0  0  0  0  0  0  0  0  0  0
  -18.0835   -5.7371  -25.8623 C   0  0  0  0  0  0  0  0  0  0  0  0
  -17.7078   -3.6459  -27.0383 C   0  0  0  0  0  0  0  0  0  0  0  0
  -16.3767   -3.6585  -26.8353 C   0  0  0  0  0  0  0  0  0  0  0  0
  -18.6125   -4.7014  -26.5497 C   0  0  0  0  0  0  0  0  0  0  0  0
  -23.2634   -5.5532  -26.1860 C   0  0  0  0  0  0  0  0  0  0  0  0
  -23.0400   -3.0368  -26.1557 C   0  0  0  0  0  0  0  0  0  0  0  0
  -20.9681   -4.4937  -25.7831 C   0  0  0  0  0  0  0  0  0  0  0  0
  -23.7936   -5.5143  -24.7572 C   0  0  0  0  0  0  0  0  0  0  0  0
  -23.5715   -3.0159  -24.7271 C   0  0  0  0  0  0  0  0  0  0  0  0
  -22.3403   -4.3630  -26.5096 C   0  0  0  0  0  0  0  0  0  0  0  0
  -23.1188   -2.9487  -31.9851 C   0  0  0  0  0  0  0  0  0  0  0  0
  -19.3621   -5.6707  -32.0153 C   0  0  0  0  0  0  0  0  0  0  0  0
  -25.1387   -4.1548  -23.1593 C   0  0  0  0  0  0  0  0  0  0  0  0
  -26.4755   -4.8666  -23.2250 C   0  0  0  0  0  0  0  0  0  0  0  0
  -15.8525   -4.7199  -26.1330 N   0  0  0  0  0  0  0  0  0  0  0  0
  -15.8072   -6.5867  -25.0263 N   0  3  0  0  0  0  0  0  0  0  0  0
  -19.9294   -4.5779  -26.8155 N   0  0  0  0  0  0  0  0  0  0  0  0
  -24.4869   -4.1964  -24.5143 N   0  3  0  0  0  0  0  0  0  0  0  0
  -27.1132   -4.7996  -21.9564 O   0  0  0  0  0  0  0  0  0  0  0  0
  -22.8663   -4.2541  -31.4703 O   0  0  0  0  0  0  0  0  0  0  0  0
  -20.1122   -4.5021  -31.6932 O   0  0  0  0  0  0  0  0  0  0  0  0
  -19.4840   -6.4550  -37.5888 F   0  0  0  0  0  0  0  0  0  0  0  0
  -19.2352   -8.0306  -33.3663 H   0  0  0  0  0  0  0  0  0  0  0  0
  -19.5641   -3.7756  -33.9571 H   0  0  0  0  0  0  0  0  0  0  0  0
  -19.2886   -8.3689  -35.8150 H   0  0  0  0  0  0  0  0  0  0  0  0
  -19.6187   -4.1258  -36.4047 H   0  0  0  0  0  0  0  0  0  0  0  0
  -23.7801   -4.2015  -29.0117 H   0  0  0  0  0  0  0  0  0  0  0  0
  -18.8242   -4.6461  -29.4232 H   0  0  0  0  0  0  0  0  0  0  0  0
  -13.7906   -4.2461  -26.1074 H   0  0  0  0  0  0  0  0  0  0  0  0
  -13.7507   -6.7312  -24.6367 H   0  0  0  0  0  0  0  0  0  0  0  0
  -18.6740   -6.5546  -25.4676 H   0  0  0  0  0  0  0  0  0  0  0  0
  -18.1503   -2.8207  -27.5893 H   0  0  0  0  0  0  0  0  0  0  0  0
  -15.7038   -2.8885  -27.1897 H   0  0  0  0  0  0  0  0  0  0  0  0
  -22.7384   -6.5034  -26.3502 H   0  0  0  0  0  0  0  0  0  0  0  0
  -24.1201   -5.5633  -26.8734 H   0  0  0  0  0  0  0  0  0  0  0  0
  -23.8801   -2.8595  -26.8407 H   0  0  0  0  0  0  0  0  0  0  0  0
  -22.3555   -2.1904  -26.2983 H   0  0  0  0  0  0  0  0  0  0  0  0
  -20.7663   -3.6312  -25.1363 H   0  0  0  0  0  0  0  0  0  0  0  0
  -20.9253   -5.3899  -25.1523 H   0  0  0  0  0  0  0  0  0  0  0  0
  -24.5340   -6.3065  -24.6039 H   0  0  0  0  0  0  0  0  0  0  0  0
  -22.9977   -5.6148  -24.0121 H   0  0  0  0  0  0  0  0  0  0  0  0
  -22.7717   -3.0754  -23.9817 H   0  0  0  0  0  0  0  0  0  0  0  0
  -24.1608   -2.1095  -24.5531 H   0  0  0  0  0  0  0  0  0  0  0  0
  -23.7470   -3.0228  -32.8761 H   0  0  0  0  0  0  0  0  0  0  0  0
  -22.1710   -2.4645  -32.2337 H   0  0  0  0  0  0  0  0  0  0  0  0
  -23.6375   -2.3607  -31.2242 H   0  0  0  0  0  0  0  0  0  0  0  0
  -19.7938   -6.5286  -31.4886 H   0  0  0  0  0  0  0  0  0  0  0  0
  -18.3320   -5.5443  -31.6649 H   0  0  0  0  0  0  0  0  0  0  0  0
  -24.4454   -4.6429  -22.4686 H   0  0  0  0  0  0  0  0  0  0  0  0
  -25.2549   -3.0993  -22.8993 H   0  0  0  0  0  0  0  0  0  0  0  0
  -27.1240   -4.3727  -23.9553 H   0  0  0  0  0  0  0  0  0  0  0  0
  -26.3607   -5.9173  -23.5106 H   0  0  0  0  0  0  0  0  0  0  0  0
  -16.1066   -7.4421  -24.5663 H   0  0  0  0  0  0  0  0  0  0  0  0
  -25.2476   -4.1204  -25.2037 H   0  0  0  0  0  0  0  0  0  0  0  0
  -27.9606   -5.2652  -22.0441 H   0  0  0  0  0  0  0  0  0  0  0  0
  1  3  1  0  0  0  0
  1 10  2  0  0  0  0
  2  4  2  0  0  0  0
  2 10  1  0  0  0  0
  3 14  2  0  0  0  0
  4 14  1  0  0  0  0
  5  9  1  0  0  0  0
  5 12  2  0  0  0  0
  6 11  1  0  0  0  0
  6 13  2  0  0  0  0
  7  8  2  0  0  0  0
  7 30  1  0  0  0  0
  8 31  1  0  0  0  0
  9 11  2  0  0  0  0
  9 25  1  0  0  0  0
 10 27  1  0  0  0  0
 11 32  1  0  0  0  0
 12 13  1  0  0  0  0
 12 35  1  0  0  0  0
 13 36  1  0  0  0  0
 14 37  1  0  0  0  0
 15 16  1  0  0  0  0
 15 30  1  0  0  0  0
 15 31  2  0  0  0  0
 16 19  2  0  0  0  0
 17 18  2  0  0  0  0
 17 19  1  0  0  0  0
 18 30  1  0  0  0  0
 19 32  1  0  0  0  0
 20 23  1  0  0  0  0
 20 25  1  0  0  0  0
 21 24  1  0  0  0  0
 21 25  1  0  0  0  0
 22 25  1  0  0  0  0
 22 32  1  0  0  0  0
 23 33  1  0  0  0  0
 24 33  1  0  0  0  0
 26 35  1  0  0  0  0
 27 36  1  0  0  0  0
 28 29  1  0  0  0  0
 28 33  1  0  0  0  0
 29 34  1  0  0  0  0
  1 38  1  0  0  0  0
  2 39  1  0  0  0  0
  3 40  1  0  0  0  0
  4 41  1  0  0  0  0
  5 42  1  0  0  0  0
  6 43  1  0  0  0  0
  7 44  1  0  0  0  0
  8 45  1  0  0  0  0
 16 46  1  0  0  0  0
 17 47  1  0  0  0  0
 18 48  1  0  0  0  0
 20 49  1  0  0  0  0
 20 50  1  0  0  0  0
 21 51  1  0  0  0  0
 21 52  1  0  0  0  0
 22 53  1  0  0  0  0
 22 54  1  0  0  0  0
 23 55  1  0  0  0  0
 23 56  1  0  0  0  0
 24 57  1  0  0  0  0
 24 58  1  0  0  0  0
 26 59  1  0  0  0  0
 26 60  1  0  0  0  0
 26 61  1  0  0  0  0
 27 62  1  0  0  0  0
 27 63  1  0  0  0  0
 28 64  1  0  0  0  0
 28 65  1  0  0  0  0
 29 66  1  0  0  0  0
 29 67  1  0  0  0  0
 31 68  1  0  0  0  0
 33 69  1  0  0  0  0
 34 70  1  0  0  0  0
M  CHG  2  31   1  33   1
M  END
> <SMILES>
COc1cc2c(cc1OCc1ccc(cc1)F)N(CC12CCN(CCO)CC1)c1ccn2ccnc2c1

> <FORMATTED_ID>
H3D-014970

> <MOLFORMULA>
C29H31FN4O3

> <Exact Mass>
502.24

> <XLogP>
5.36

> <TPSA_NOPS>
62.5

> <s_m_source_file>
ligprep_h3d.sdf

> <i_m_source_file_index>
5342

> <i_lp_mmshare_version>
55123

> <i_f3d_flags>
0

> <s_epik_input>
W2NIXTFbY0hdYyhGKVtjSF1bY0hdYzFbQ0gyXU9jKGMoW2NIXTIpT1tDSDNdKVtjSF1jKE4oW0NIMl0zKWMoW2NIXVtjSF00KVtjSF1jKG40NSluW2NIXVtjSF01KWMyQzM2W0NIMl1bQ0gyXU4oW0NIMl1bQ0gyXTYpW0NIMl1bQ0gyXVtPSF0=

> <s_epik_cmdline>
J2VwaWtfcHl0aG9uJywgJy1waHQnLCAnMC41JywgJy1waCcsICc3LjUnLCAnLXRuJywgJzgnLCAnLW1hJywgJzUwMCcsICctaW1hZScsICc8aW5maWxlLm1hZT4nLCAnLW9tYWUnLCAnPG91dGZpbGUubWFlPic=

> <r_lp_tautomer_probability>
1

> <r_epik_Ionization_Penalty>
0.421414

> <r_epik_Ionization_Penalty_Charging>
0.0243449

> <r_epik_Ionization_Penalty_Neutral>
0.397069

> <r_epik_State_Penalty>
0.390996

> <r_epik_Charging_Adjusted_Penalty>
0.415341

> <i_epik_Tot_Q>
2

> <i_epik_Tot_abs_Q>
2

> <s_lp_Force_Field>
S-OPLS

> <r_lp_Energy>
74.7929

> <b_lp_Chiralities_Consistent>
1

> <s_lp_Variant>
ligprep_h3d.sdf:5342-1

> <ROCS_ShapeQuery>
_7L13

> <ROCS_TanimotoCombo>
0.757 

> <ROCS_ShapeTanimoto>
0.673 

> <ROCS_ColorTanimoto>
0.084 

> <ROCS_RefTversky>
0.817 

> <ROCS_RefColorTversky>
0.193 

> <ROCS_RefTverskyCombo>
1.010 

> <ROCS_FitTversky>
0.793 

> <ROCS_FitColorTversky>
0.130 

> <ROCS_FitTverskyCombo>
0.923 

> <ROCS_ColorScore>
-1.789

> <ROCS_Overlap>
1358.367

> <ROCS_Rank>
70                  

$$$$
ligprep_h3d.sdf:5020_1707
  -OEChem-08212117123D

 67 71  0     1  0  0  0  0  0999 V2000
  -20.2511   -5.3664  -35.8862 C   0  0  0  0  0  0  0  0  0  0  0  0
  -20.2375   -7.2386  -34.3592 C   0  0  0  0  0  0  0  0  0  0  0  0
  -19.3358   -6.0276  -36.7051 C   0  0  0  0  0  0  0  0  0  0  0  0
  -19.3222   -7.8999  -35.1781 C   0  0  0  0  0  0  0  0  0  0  0  0
  -23.2703   -4.1355  -24.1004 C   0  0  0  0  0  0  0  0  0  0  0  0
  -25.3147   -4.9752  -25.0763 C   0  0  0  0  0  0  0  0  0  0  0  0
  -23.8646   -4.1549  -22.8386 C   0  0  0  0  0  0  0  0  0  0  0  0
  -25.9090   -4.9947  -23.8145 C   0  0  0  0  0  0  0  0  0  0  0  0
  -17.1199   -5.8278  -25.6265 C   0  0  0  0  0  0  0  0  0  0  0  0
  -17.4127   -3.4297  -25.6294 C   0  0  0  0  0  0  0  0  0  0  0  0
  -15.8152   -4.4498  -24.1312 C   0  0  0  0  0  0  0  0  0  0  0  0
  -20.7020   -5.9719  -34.7132 C   0  0  0  0  0  0  0  0  0  0  0  0
  -17.7500   -4.6884  -26.1268 C   0  0  0  0  0  0  0  0  0  0  0  0
  -18.8714   -7.2944  -36.3511 C   0  0  0  0  0  0  0  0  0  0  0  0
  -23.9954   -4.5456  -25.2192 C   0  0  0  0  0  0  0  0  0  0  0  0
  -25.1839   -4.5846  -22.6956 C   0  0  0  0  0  0  0  0  0  0  0  0
  -16.1526   -5.7086  -24.6286 C   0  0  0  0  0  0  0  0  0  0  0  0
  -16.4453   -3.3104  -24.6316 C   0  0  0  0  0  0  0  0  0  0  0  0
  -21.9575   -4.0839  -31.6508 C   0  0  0  0  0  0  0  0  0  0  0  0
  -22.3472   -4.1960  -29.2045 C   0  0  0  0  0  0  0  0  0  0  0  0
  -19.2485   -5.9454  -27.8062 C   0  0  0  0  0  0  0  0  0  0  0  0
  -19.2910   -3.8485  -28.0148 C   0  0  0  0  0  0  0  0  0  0  0  0
  -20.2566   -5.0883  -30.0594 C   0  0  0  0  0  0  0  0  0  0  0  0
  -21.6932   -5.0219  -28.1050 C   0  0  1  0  0  0  0  0  0  0  0  0
  -20.2175   -4.9845  -28.5322 C   0  0  0  0  0  0  0  0  0  0  0  0
  -21.6918   -5.2571  -33.8264 C   0  0  0  0  0  0  0  0  0  0  0  0
  -21.9946   -4.5078  -26.7096 C   0  0  0  0  0  0  0  0  0  0  0  0
  -21.0034   -4.3957  -32.7761 C   0  0  1  0  0  0  0  0  0  0  0  0
  -18.7217   -4.8078  -27.1300 N   0  0  0  0  0  0  0  0  0  0  0  0
  -21.5285   -4.4447  -30.3838 N   0  0  0  0  0  0  0  0  0  0  0  0
  -17.9474   -7.9641  -37.1797 N   0  0  0  0  0  0  0  0  0  0  0  0
  -20.6275   -3.1027  -33.2704 N   0  0  0  0  0  0  0  0  0  0  0  0
  -23.4003   -4.5260  -26.4828 N   0  0  0  0  0  0  0  0  0  0  0  0
  -23.0372   -3.5373  -31.8836 O   0  0  0  0  0  0  0  0  0  0  0  0
  -25.7546   -4.6033  -21.4839 F   0  0  0  0  0  0  0  0  0  0  0  0
  -15.5464   -6.8028  -24.1497 F   0  0  0  0  0  0  0  0  0  0  0  0
  -16.1199   -2.1015  -24.1553 F   0  0  0  0  0  0  0  0  0  0  0  0
  -20.6068   -4.3794  -36.1691 H   0  0  0  0  0  0  0  0  0  0  0  0
  -20.5819   -7.7174  -33.4465 H   0  0  0  0  0  0  0  0  0  0  0  0
  -18.9899   -5.5462  -37.6161 H   0  0  0  0  0  0  0  0  0  0  0  0
  -18.9665   -8.8864  -34.8921 H   0  0  0  0  0  0  0  0  0  0  0  0
  -22.2415   -3.7991  -24.2004 H   0  0  0  0  0  0  0  0  0  0  0  0
  -25.8890   -5.2967  -25.9413 H   0  0  0  0  0  0  0  0  0  0  0  0
  -23.3003   -3.8359  -21.9673 H   0  0  0  0  0  0  0  0  0  0  0  0
  -26.9362   -5.3289  -23.7026 H   0  0  0  0  0  0  0  0  0  0  0  0
  -17.3745   -6.8132  -26.0075 H   0  0  0  0  0  0  0  0  0  0  0  0
  -17.8967   -2.5352  -26.0129 H   0  0  0  0  0  0  0  0  0  0  0  0
  -15.0609   -4.3575  -23.3554 H   0  0  0  0  0  0  0  0  0  0  0  0
  -23.3501   -4.5699  -29.4313 H   0  0  0  0  0  0  0  0  0  0  0  0
  -22.4135   -3.1279  -28.9883 H   0  0  0  0  0  0  0  0  0  0  0  0
  -19.7103   -6.6604  -27.1123 H   0  0  0  0  0  0  0  0  0  0  0  0
  -18.5024   -6.4631  -28.4197 H   0  0  0  0  0  0  0  0  0  0  0  0
  -18.5744   -3.4448  -28.7321 H   0  0  0  0  0  0  0  0  0  0  0  0
  -19.7949   -3.0387  -27.4797 H   0  0  0  0  0  0  0  0  0  0  0  0
  -19.4570   -4.5054  -30.5288 H   0  0  0  0  0  0  0  0  0  0  0  0
  -20.2294   -6.1134  -30.4396 H   0  0  0  0  0  0  0  0  0  0  0  0
  -22.0918   -6.0835  -28.1696 H   0  0  0  0  0  0  0  0  0  0  0  0
  -22.3427   -4.6382  -34.4587 H   0  0  0  0  0  0  0  0  0  0  0  0
  -22.3599   -5.9903  -33.3541 H   0  0  0  0  0  0  0  0  0  0  0  0
  -21.4838   -5.1639  -26.0071 H   0  0  0  0  0  0  0  0  0  0  0  0
  -21.6093   -3.4915  -26.6504 H   0  0  0  0  0  0  0  0  0  0  0  0
  -20.1214   -4.8728  -32.3480 H   0  0  0  0  0  0  0  0  0  0  0  0
  -17.6689   -7.5407  -38.0418 H   0  0  0  0  0  0  0  0  0  0  0  0
  -17.6586   -8.8907  -36.9389 H   0  0  0  0  0  0  0  0  0  0  0  0
  -20.8084   -3.0526  -34.2535 H   0  0  0  0  0  0  0  0  0  0  0  0
  -21.1575   -2.3960  -32.7998 H   0  0  0  0  0  0  0  0  0  0  0  0
  -24.0337   -4.5238  -27.2866 H   0  0  0  0  0  0  0  0  0  0  0  0
  1  3  1  0  0  0  0
  1 12  2  0  0  0  0
  2  4  2  0  0  0  0
  2 12  1  0  0  0  0
  3 14  2  0  0  0  0
  4 14  1  0  0  0  0
  5  7  1  0  0  0  0
  5 15  2  0  0  0  0
  6  8  2  0  0  0  0
  6 15  1  0  0  0  0
  7 16  2  0  0  0  0
  8 16  1  0  0  0  0
  9 13  2  0  0  0  0
  9 17  1  0  0  0  0
 10 13  1  0  0  0  0
 10 18  2  0  0  0  0
 11 17  2  0  0  0  0
 11 18  1  0  0  0  0
 12 26  1  0  0  0  0
 13 29  1  0  0  0  0
 14 31  1  0  0  0  0
 15 33  1  0  0  0  0
 16 35  1  0  0  0  0
 17 36  1  0  0  0  0
 18 37  1  0  0  0  0
 19 28  1  0  0  0  0
 19 30  1  0  0  0  0
 19 34  2  0  0  0  0
 20 24  1  0  0  0  0
 20 30  1  0  0  0  0
 21 25  1  0  0  0  0
 21 29  1  0  0  0  0
 22 25  1  0  0  0  0
 22 29  1  0  0  0  0
 23 25  1  0  0  0  0
 23 30  1  0  0  0  0
 24 25  1  0  0  0  0
 24 27  1  0  0  0  0
 26 28  1  0  0  0  0
 27 33  1  0  0  0  0
 28 32  1  0  0  0  0
  1 38  1  0  0  0  0
  2 39  1  0  0  0  0
  3 40  1  0  0  0  0
  4 41  1  0  0  0  0
  5 42  1  0  0  0  0
  6 43  1  0  0  0  0
  7 44  1  0  0  0  0
  8 45  1  0  0  0  0
  9 46  1  0  0  0  0
 10 47  1  0  0  0  0
 11 48  1  0  0  0  0
 20 49  1  0  0  0  0
 20 50  1  0  0  0  0
 21 51  1  0  0  0  0
 21 52  1  0  0  0  0
 22 53  1  0  0  0  0
 22 54  1  0  0  0  0
 23 55  1  0  0  0  0
 23 56  1  0  0  0  0
 24 57  1  0  0  0  0
 26 58  1  0  0  0  0
 26 59  1  0  0  0  0
 27 60  1  0  0  0  0
 27 61  1  0  0  0  0
 28 62  1  0  0  0  0
 31 63  1  0  0  0  0
 31 64  1  0  0  0  0
 32 65  1  0  0  0  0
 32 66  1  0  0  0  0
 33 67  1  0  0  0  0
M  END
> <SMILES>
N[C@H](Cc1ccc(cc1)N)C(=O)N1CC(CNc2ccc(cc2)F)C2(C1)CN(C2)c1cc(cc(c1)F)F

> <FORMATTED_ID>
H3D-009160

> <MOLFORMULA>
C28H30F3N5O

> <Exact Mass>
509.24

> <XLogP>
2.89

> <TPSA_NOPS>
87.6

> <s_m_source_file>
ligprep_h3d.sdf

> <i_m_source_file_index>
5020

> <i_lp_mmshare_version>
55123

> <i_f3d_flags>
0

> <s_epik_input>
W2NIXTFbY0hdYyhbTkgyXSlbY0hdW2NIXWMxW0NIMl1bQ0BASF0oW05IMl0pQyg9TylOKFtDSDJdMilbQ0gyXVtDQEhdKFtDSDJdW05IXWMzW2NIXVtjSF1jKEYpW2NIXVtjSF0zKUMyNFtDSDJdTihbQ0gyXTQpYzVbY0hdYyhGKVtjSF1jKEYpW2NIXTU=

> <s_epik_cmdline>
J2VwaWtfcHl0aG9uJywgJy1waHQnLCAnMC41JywgJy1waCcsICc3LjUnLCAnLXRuJywgJzgnLCAnLW1hJywgJzUwMCcsICctaW1hZScsICc8aW5maWxlLm1hZT4nLCAnLW9tYWUnLCAnPG91dGZpbGUubWFlPic=

> <r_epik_Ionization_Penalty>
0.444635

> <r_epik_Ionization_Penalty_Charging>
0

> <r_epik_Ionization_Penalty_Neutral>
0.444635

> <r_epik_State_Penalty>
0.442014

> <r_epik_Charging_Adjusted_Penalty>
0.442014

> <i_epik_Tot_Q>
0

> <i_epik_Tot_abs_Q>
0

> <s_lp_Force_Field>
S-OPLS

> <r_lp_Energy>
39.2844

> <b_lp_Chiralities_Consistent>
1

> <s_lp_Variant>
ligprep_h3d.sdf:5020-2

> <ROCS_ShapeQuery>
_7L13

> <ROCS_TanimotoCombo>
0.735 

> <ROCS_ShapeTanimoto>
0.682 

> <ROCS_ColorTanimoto>
0.053 

> <ROCS_RefTversky>
0.816 

> <ROCS_RefColorTversky>
0.111 

> <ROCS_RefTverskyCombo>
0.928 

> <ROCS_FitTversky>
0.806 

> <ROCS_FitColorTversky>
0.093 

> <ROCS_FitTverskyCombo>
0.898 

> <ROCS_ColorScore>
-1.011

> <ROCS_Overlap>
1356.786

> <ROCS_Rank>
71                  

$$$$
ligprep_h3d.sdf:2385_1566
  -OEChem-08212117123D

105109  0     1  0  0  0  0  0999 V2000
  -23.6420   -4.5996  -22.6026 C   0  0  0  0  0  0  0  0  0  0  0  0
  -25.7822   -5.3767  -23.4105 C   0  0  0  0  0  0  0  0  0  0  0  0
  -23.4813   -3.8384  -23.7603 C   0  0  0  0  0  0  0  0  0  0  0  0
  -25.6216   -4.6154  -24.5682 C   0  0  0  0  0  0  0  0  0  0  0  0
  -24.7925   -5.3688  -22.4277 C   0  0  0  0  0  0  0  0  0  0  0  0
  -24.4711   -3.8463  -24.7431 C   0  0  0  0  0  0  0  0  0  0  0  0
  -22.1899   -3.9641  -30.1511 C   0  0  0  0  0  0  0  0  0  0  0  0
  -19.4303   -5.3325  -26.2235 C   0  0  0  0  0  0  0  0  0  0  0  0
  -21.9912   -4.0245  -28.8292 C   0  0  0  0  0  0  0  0  0  0  0  0
  -18.1170   -5.1326  -26.0029 C   0  0  0  0  0  0  0  0  0  0  0  0
  -22.7446   -3.0970  -27.9290 C   0  0  0  0  0  0  0  0  0  0  0  0
  -23.7910   -0.7221  -30.5845 C   0  0  0  0  0  0  0  0  0  0  0  0
  -19.6684   -4.0825  -35.9246 C   0  0  0  0  0  0  0  0  0  0  0  0
  -18.6616   -8.4007  -36.0693 C   0  0  0  0  0  0  0  0  0  0  0  0
  -20.7730   -3.6797  -34.9321 C   0  0  0  0  0  0  0  0  0  0  0  0
  -19.3081   -7.7623  -34.8273 C   0  0  0  0  0  0  0  0  0  0  0  0
  -20.2198   -5.5625  -30.9214 C   0  0  0  0  0  0  0  0  0  0  0  0
  -22.7866   -3.1685  -32.3546 C   0  0  0  0  0  0  0  0  0  0  0  0
  -21.5246   -4.8205  -31.2007 C   0  0  2  0  0  0  0  0  0  0  0  0
  -23.0850   -2.9618  -30.8531 C   0  0  2  0  0  0  0  0  0  0  0  0
  -19.5688   -5.5988  -36.0603 C   0  0  1  0  0  0  0  0  0  0  0  0
  -19.7260   -5.5184  -33.4557 C   0  0  1  0  0  0  0  0  0  0  0  0
  -18.7993   -6.1433  -37.2944 C   0  0  1  0  0  0  0  0  0  0  0  0
  -18.9969   -7.6794  -37.3770 C   0  0  2  0  0  0  0  0  0  0  0  0
  -19.7991   -6.3805  -32.1594 C   0  0  2  0  0  0  0  0  0  0  0  0
  -19.0617   -6.2352  -34.7203 C   0  0  1  0  0  0  0  0  0  0  0  0
  -21.0309   -4.6623  -33.7357 C   0  0  1  0  0  0  0  0  0  0  0  0
  -21.3874   -3.8428  -32.4017 C   0  0  1  0  0  0  0  0  0  0  0  0
  -24.9652   -6.1826  -21.1900 C   0  0  0  0  0  0  0  0  0  0  0  0
  -17.2838   -6.2068  -25.3550 C   0  0  0  0  0  0  0  0  0  0  0  0
  -17.3545   -3.8843  -26.3461 C   0  0  0  0  0  0  0  0  0  0  0  0
  -23.3152    0.6355  -30.1641 C   0  0  0  0  0  0  0  0  0  0  0  0
  -19.2327   -5.4764  -38.6066 C   0  0  0  0  0  0  0  0  0  0  0  0
  -17.5199   -6.0291  -34.5357 C   0  0  0  0  0  0  0  0  0  0  0  0
  -22.2266   -5.5816  -34.1337 C   0  0  0  0  0  0  0  0  0  0  0  0
  -20.3229   -2.7277  -32.0967 C   0  0  0  0  0  0  0  0  0  0  0  0
  -25.6284   -2.5358  -26.5694 C   0  0  0  0  0  0  0  0  0  0  0  0
  -20.4193   -4.3943  -26.8593 C   0  0  0  0  0  0  0  0  0  0  0  0
  -20.9681   -4.9301  -28.1889 C   0  0  0  0  0  0  0  0  0  0  0  0
  -24.2968   -3.0188  -25.9983 C   0  0  2  0  0  0  0  0  0  0  0  0
  -23.5450   -3.7382  -27.0004 N   0  0  0  0  0  0  0  0  0  0  0  0
  -22.5829   -1.8819  -28.0101 O   0  0  0  0  0  0  0  0  0  0  0  0
  -24.9306   -0.9632  -30.9591 O   0  0  0  0  0  0  0  0  0  0  0  0
  -20.3527   -8.0004  -37.6982 O   0  0  0  0  0  0  0  0  0  0  0  0
  -20.7137   -7.4611  -32.3198 O   0  0  0  0  0  0  0  0  0  0  0  0
  -22.7696   -1.6275  -30.4838 O   0  0  0  0  0  0  0  0  0  0  0  0
  -22.8655   -4.5876  -21.8422 H   0  0  0  0  0  0  0  0  0  0  0  0
  -26.6824   -5.9720  -23.2816 H   0  0  0  0  0  0  0  0  0  0  0  0
  -22.5825   -3.2409  -23.8871 H   0  0  0  0  0  0  0  0  0  0  0  0
  -26.3975   -4.6271  -25.3291 H   0  0  0  0  0  0  0  0  0  0  0  0
  -19.8582   -6.2880  -25.9215 H   0  0  0  0  0  0  0  0  0  0  0  0
  -19.9024   -3.6045  -36.8811 H   0  0  0  0  0  0  0  0  0  0  0  0
  -18.7101   -3.6594  -35.6041 H   0  0  0  0  0  0  0  0  0  0  0  0
  -17.5742   -8.4379  -35.9430 H   0  0  0  0  0  0  0  0  0  0  0  0
  -18.9989   -9.4434  -36.1279 H   0  0  0  0  0  0  0  0  0  0  0  0
  -20.5249   -2.6716  -34.5934 H   0  0  0  0  0  0  0  0  0  0  0  0
  -21.7056   -3.5461  -35.4966 H   0  0  0  0  0  0  0  0  0  0  0  0
  -20.3846   -7.9653  -34.8574 H   0  0  0  0  0  0  0  0  0  0  0  0
  -18.9110   -8.2818  -33.9475 H   0  0  0  0  0  0  0  0  0  0  0  0
  -19.4217   -4.8646  -30.6450 H   0  0  0  0  0  0  0  0  0  0  0  0
  -20.3621   -6.2401  -30.0707 H   0  0  0  0  0  0  0  0  0  0  0  0
  -23.5588   -3.8297  -32.7606 H   0  0  0  0  0  0  0  0  0  0  0  0
  -22.8147   -2.2336  -32.9245 H   0  0  0  0  0  0  0  0  0  0  0  0
  -22.2807   -5.5857  -31.4170 H   0  0  0  0  0  0  0  0  0  0  0  0
  -24.1424   -3.1479  -30.6442 H   0  0  0  0  0  0  0  0  0  0  0  0
  -20.5967   -5.9293  -36.2374 H   0  0  0  0  0  0  0  0  0  0  0  0
  -18.9821   -4.7573  -33.1936 H   0  0  0  0  0  0  0  0  0  0  0  0
  -17.7295   -5.9353  -37.1862 H   0  0  0  0  0  0  0  0  0  0  0  0
  -18.3712   -8.0944  -38.1763 H   0  0  0  0  0  0  0  0  0  0  0  0
  -18.8157   -6.8203  -31.9585 H   0  0  0  0  0  0  0  0  0  0  0  0
  -25.4718   -5.5953  -20.4142 H   0  0  0  0  0  0  0  0  0  0  0  0
  -25.5586   -7.0851  -21.3860 H   0  0  0  0  0  0  0  0  0  0  0  0
  -23.9973   -6.5185  -20.7956 H   0  0  0  0  0  0  0  0  0  0  0  0
  -16.8592   -6.8684  -26.1174 H   0  0  0  0  0  0  0  0  0  0  0  0
  -16.4525   -5.7968  -24.7718 H   0  0  0  0  0  0  0  0  0  0  0  0
  -17.9000   -6.8069  -24.6773 H   0  0  0  0  0  0  0  0  0  0  0  0
  -17.3397   -3.1431  -25.5452 H   0  0  0  0  0  0  0  0  0  0  0  0
  -17.7953   -3.4065  -27.2274 H   0  0  0  0  0  0  0  0  0  0  0  0
  -16.3125   -4.1322  -26.5750 H   0  0  0  0  0  0  0  0  0  0  0  0
  -23.4730    0.7679  -29.0910 H   0  0  0  0  0  0  0  0  0  0  0  0
  -23.8454    1.4059  -30.7297 H   0  0  0  0  0  0  0  0  0  0  0  0
  -22.2452    0.7255  -30.3730 H   0  0  0  0  0  0  0  0  0  0  0  0
  -20.2929   -5.6504  -38.7681 H   0  0  0  0  0  0  0  0  0  0  0  0
  -18.6665   -5.8992  -39.4317 H   0  0  0  0  0  0  0  0  0  0  0  0
  -19.0457   -4.4078  -38.5485 H   0  0  0  0  0  0  0  0  0  0  0  0
  -17.3350   -4.9717  -34.4600 H   0  0  0  0  0  0  0  0  0  0  0  0
  -17.0259   -6.4470  -35.3956 H   0  0  0  0  0  0  0  0  0  0  0  0
  -17.2244   -6.5384  -33.6349 H   0  0  0  0  0  0  0  0  0  0  0  0
  -22.4137   -6.2621  -33.3186 H   0  0  0  0  0  0  0  0  0  0  0  0
  -21.9535   -6.1213  -35.0262 H   0  0  0  0  0  0  0  0  0  0  0  0
  -23.0863   -4.9563  -34.3137 H   0  0  0  0  0  0  0  0  0  0  0  0
  -19.3523   -3.1879  -32.1278 H   0  0  0  0  0  0  0  0  0  0  0  0
  -20.5362   -2.3333  -31.1202 H   0  0  0  0  0  0  0  0  0  0  0  0
  -20.4198   -1.9704  -32.8530 H   0  0  0  0  0  0  0  0  0  0  0  0
  -26.2780   -3.3803  -26.8242 H   0  0  0  0  0  0  0  0  0  0  0  0
  -26.1551   -1.9108  -25.8394 H   0  0  0  0  0  0  0  0  0  0  0  0
  -25.4918   -1.9301  -27.4723 H   0  0  0  0  0  0  0  0  0  0  0  0
  -21.2436   -4.1374  -26.1884 H   0  0  0  0  0  0  0  0  0  0  0  0
  -19.8968   -3.4496  -27.0573 H   0  0  0  0  0  0  0  0  0  0  0  0
  -20.1318   -5.0720  -28.8853 H   0  0  0  0  0  0  0  0  0  0  0  0
  -21.3929   -5.9299  -28.0285 H   0  0  0  0  0  0  0  0  0  0  0  0
  -23.6938   -2.1329  -25.7640 H   0  0  0  0  0  0  0  0  0  0  0  0
  -23.6062   -4.7517  -27.0241 H   0  0  0  0  0  0  0  0  0  0  0  0
  -20.3885   -8.9635  -37.7936 H   0  0  0  0  0  0  0  0  0  0  0  0
  -20.6587   -7.9926  -31.5104 H   0  0  0  0  0  0  0  0  0  0  0  0
  1  3  1  0  0  0  0
  1  5  2  0  0  0  0
  2  4  2  0  0  0  0
  2  5  1  0  0  0  0
  3  6  2  0  0  0  0
  4  6  1  0  0  0  0
  5 29  1  0  0  0  0
  6 40  1  0  0  0  0
  7  9  2  0  0  0  0
  7 19  1  0  0  0  0
  7 20  1  0  0  0  0
  8 10  2  0  0  0  0
  8 38  1  0  0  0  0
  9 11  1  0  0  0  0
  9 39  1  0  0  0  0
 10 30  1  0  0  0  0
 10 31  1  0  0  0  0
 11 41  1  0  0  0  0
 11 42  2  0  0  0  0
 12 32  1  0  0  0  0
 12 43  2  0  0  0  0
 12 46  1  0  0  0  0
 13 15  1  0  0  0  0
 13 21  1  0  0  0  0
 14 16  1  0  0  0  0
 14 24  1  0  0  0  0
 15 27  1  0  0  0  0
 16 26  1  0  0  0  0
 17 19  1  0  0  0  0
 17 25  1  0  0  0  0
 18 20  1  0  0  0  0
 18 28  1  0  0  0  0
 19 28  1  0  0  0  0
 20 46  1  0  0  0  0
 21 23  1  0  0  0  0
 21 26  1  0  0  0  0
 22 25  1  0  0  0  0
 22 26  1  0  0  0  0
 22 27  1  0  0  0  0
 23 24  1  0  0  0  0
 23 33  1  0  0  0  0
 24 44  1  0  0  0  0
 25 45  1  0  0  0  0
 26 34  1  0  0  0  0
 27 28  1  0  0  0  0
 27 35  1  0  0  0  0
 28 36  1  0  0  0  0
 37 40  1  0  0  0  0
 38 39  1  0  0  0  0
 40 41  1  0  0  0  0
  1 47  1  0  0  0  0
  2 48  1  0  0  0  0
  3 49  1  0  0  0  0
  4 50  1  0  0  0  0
  8 51  1  0  0  0  0
 13 52  1  0  0  0  0
 13 53  1  0  0  0  0
 14 54  1  0  0  0  0
 14 55  1  0  0  0  0
 15 56  1  0  0  0  0
 15 57  1  0  0  0  0
 16 58  1  0  0  0  0
 16 59  1  0  0  0  0
 17 60  1  0  0  0  0
 17 61  1  0  0  0  0
 18 62  1  0  0  0  0
 18 63  1  0  0  0  0
 19 64  1  0  0  0  0
 20 65  1  0  0  0  0
 21 66  1  0  0  0  0
 22 67  1  0  0  0  0
 23 68  1  0  0  0  0
 24 69  1  0  0  0  0
 25 70  1  0  0  0  0
 29 71  1  0  0  0  0
 29 72  1  0  0  0  0
 29 73  1  0  0  0  0
 30 74  1  0  0  0  0
 30 75  1  0  0  0  0
 30 76  1  0  0  0  0
 31 77  1  0  0  0  0
 31 78  1  0  0  0  0
 31 79  1  0  0  0  0
 32 80  1  0  0  0  0
 32 81  1  0  0  0  0
 32 82  1  0  0  0  0
 33 83  1  0  0  0  0
 33 84  1  0  0  0  0
 33 85  1  0  0  0  0
 34 86  1  0  0  0  0
 34 87  1  0  0  0  0
 34 88  1  0  0  0  0
 35 89  1  0  0  0  0
 35 90  1  0  0  0  0
 35 91  1  0  0  0  0
 36 92  1  0  0  0  0
 36 93  1  0  0  0  0
 36 94  1  0  0  0  0
 37 95  1  0  0  0  0
 37 96  1  0  0  0  0
 37 97  1  0  0  0  0
 38 98  1  0  0  0  0
 38 99  1  0  0  0  0
 39100  1  0  0  0  0
 39101  1  0  0  0  0
 40102  1  0  0  0  0
 41103  1  0  0  0  0
 44104  1  0  0  0  0
 45105  1  0  0  0  0
M  END
> <SMILES>
CC(NC(=O)/C(=C/1\[C@H](C[C@@]2(C)[C@H]1C[C@@H](O)[C@H]1[C@@]3(C)CC[C@@H](O)[C@@H](C)[C@@H]3CC[C@@]12C)OC(=O)C)CCC=C(C)C)c1ccc(cc1)C

> <FORMATTED_ID>
H3D-005474

> <MOLFORMULA>
C40H59NO5

> <Exact Mass>
633.44

> <XLogP>
7.82

> <TPSA_NOPS>
95.9

> <s_m_source_file>
ligprep_h3d.sdf

> <i_m_source_file_index>
2385

> <i_lp_mmshare_version>
55123

> <i_f3d_flags>
0

> <s_epik_input>
W2NIXTFbY0hdYyhbQ0gzXSlbY0hdW2NIXWMxW0NASF0oW0NIM10pW05IXUMoPU8pL0MoW0NIMl1bQ0gyXVtDSF09QyhbQ0gzXSlbQ0gzXSk9QyhcW0NASF0oW0NIMl0yKU9DKD1PKVtDSDNdKVtDQEBIXShbQ0BdMjNbQ0gzXSlbQ0gyXVtDQEBIXShbT0hdKVtDQEhdNFtDQF01KFtDSDNdKVtDQEhdKFtDQEhdKFtDSDNdKVtDQEhdKFtPSF0pW0NIMl1bQ0gyXTUpW0NIMl1bQ0gyXVtDQF0zNFtDSDNd

> <s_epik_cmdline>
J2VwaWtfcHl0aG9uJywgJy1waHQnLCAnMC41JywgJy1waCcsICc3LjUnLCAnLXRuJywgJzgnLCAnLW1hJywgJzUwMCcsICctaW1hZScsICc8aW5maWxlLm1hZT4nLCAnLW9tYWUnLCAnPG91dGZpbGUubWFlPic=

> <r_lp_tautomer_probability>
1

> <r_epik_Ionization_Penalty>
1.59354e-06

> <r_epik_Ionization_Penalty_Charging>
0

> <r_epik_Ionization_Penalty_Neutral>
1.59354e-06

> <r_epik_State_Penalty>
-0

> <r_epik_Charging_Adjusted_Penalty>
0

> <i_epik_Tot_Q>
0

> <i_epik_Tot_abs_Q>
0

> <s_epik_Chemistry_Notes>
This compound has an ester and may undergo hydrolysis at high or low pH.

> <s_lp_Force_Field>
S-OPLS

> <r_lp_Energy>
84.4364

> <b_lp_Chiralities_Consistent>
1

> <s_lp_Variant>
ligprep_h3d.sdf:2385-1

> <ROCS_ShapeQuery>
_7L13

> <ROCS_TanimotoCombo>
0.679 

> <ROCS_ShapeTanimoto>
0.595 

> <ROCS_ColorTanimoto>
0.084 

> <ROCS_RefTversky>
0.816 

> <ROCS_RefColorTversky>
0.193 

> <ROCS_RefTverskyCombo>
1.009 

> <ROCS_FitTversky>
0.687 

> <ROCS_FitColorTversky>
0.129 

> <ROCS_FitTverskyCombo>
0.816 

> <ROCS_ColorScore>
-1.782

> <ROCS_Overlap>
1369.991

> <ROCS_Rank>
72                  

$$$$
ligprep_h3d.sdf:4957_1563
  -OEChem-08212117123D

 67 71  0     1  0  0  0  0  0999 V2000
  -20.2844   -5.3671  -35.9171 C   0  0  0  0  0  0  0  0  0  0  0  0
  -20.3061   -7.2525  -34.4065 C   0  0  0  0  0  0  0  0  0  0  0  0
  -23.2762   -4.1511  -24.1083 C   0  0  0  0  0  0  0  0  0  0  0  0
  -25.3302   -4.9545  -25.0945 C   0  0  0  0  0  0  0  0  0  0  0  0
  -19.3995   -6.0475  -36.7536 C   0  0  0  0  0  0  0  0  0  0  0  0
  -19.4213   -7.9329  -35.2431 C   0  0  0  0  0  0  0  0  0  0  0  0
  -23.8741   -4.1692  -22.8482 C   0  0  0  0  0  0  0  0  0  0  0  0
  -25.9281   -4.9727  -23.8344 C   0  0  0  0  0  0  0  0  0  0  0  0
  -17.1476   -5.9260  -25.6283 C   0  0  0  0  0  0  0  0  0  0  0  0
  -17.4046   -3.5238  -25.6177 C   0  0  0  0  0  0  0  0  0  0  0  0
  -15.8266   -4.5764  -24.1214 C   0  0  0  0  0  0  0  0  0  0  0  0
  -20.7376   -5.9696  -34.7435 C   0  0  0  0  0  0  0  0  0  0  0  0
  -17.7593   -4.7744  -26.1235 C   0  0  0  0  0  0  0  0  0  0  0  0
  -24.0043   -4.5438  -25.2314 C   0  0  0  0  0  0  0  0  0  0  0  0
  -18.9680   -7.3304  -36.4166 C   0  0  0  0  0  0  0  0  0  0  0  0
  -25.2001   -4.5800  -22.7112 C   0  0  0  0  0  0  0  0  0  0  0  0
  -16.1813   -5.8270  -24.6272 C   0  0  0  0  0  0  0  0  0  0  0  0
  -16.4382   -3.4248  -24.6166 C   0  0  0  0  0  0  0  0  0  0  0  0
  -21.9423   -4.0745  -31.6548 C   0  0  0  0  0  0  0  0  0  0  0  0
  -22.3402   -4.1952  -29.2102 C   0  0  0  0  0  0  0  0  0  0  0  0
  -19.2718   -5.9989  -27.8142 C   0  0  0  0  0  0  0  0  0  0  0  0
  -19.2824   -3.9004  -28.0104 C   0  0  0  0  0  0  0  0  0  0  0  0
  -20.2608   -5.1135  -30.0649 C   0  0  0  0  0  0  0  0  0  0  0  0
  -21.7016   -5.0373  -28.1139 C   0  0  1  0  0  0  0  0  0  0  0  0
  -20.2243   -5.0194  -28.5370 C   0  0  0  0  0  0  0  0  0  0  0  0
  -21.6954   -5.2339  -33.8387 C   0  0  0  0  0  0  0  0  0  0  0  0
  -21.9991   -4.5270  -26.7163 C   0  0  0  0  0  0  0  0  0  0  0  0
  -20.9899   -4.3939  -32.7793 C   0  0  1  0  0  0  0  0  0  0  0  0
  -18.7299   -4.8733  -27.1299 N   0  0  0  0  0  0  0  0  0  0  0  0
  -21.5222   -4.4491  -30.3888 N   0  0  0  0  0  0  0  0  0  0  0  0
  -23.4056   -4.5256  -26.4933 N   0  0  0  0  0  0  0  0  0  0  0  0
  -20.5231   -3.1127  -33.3647 N   0  3  0  0  0  0  0  0  0  0  0  0
  -23.0131   -3.5106  -31.8871 O   0  0  0  0  0  0  0  0  0  0  0  0
  -18.1056   -7.9946  -37.2337 O   0  0  0  0  0  0  0  0  0  0  0  0
  -25.7742   -4.5973  -21.5012 F   0  0  0  0  0  0  0  0  0  0  0  0
  -15.5928   -6.9330  -24.1532 F   0  0  0  0  0  0  0  0  0  0  0  0
  -16.0962   -2.2237  -24.1323 F   0  0  0  0  0  0  0  0  0  0  0  0
  -20.6153   -4.3679  -36.1874 H   0  0  0  0  0  0  0  0  0  0  0  0
  -20.6540   -7.7298  -33.4940 H   0  0  0  0  0  0  0  0  0  0  0  0
  -22.2422   -3.8295  -24.2035 H   0  0  0  0  0  0  0  0  0  0  0  0
  -25.9069   -5.2623  -25.9630 H   0  0  0  0  0  0  0  0  0  0  0  0
  -19.0502   -5.5729  -37.6667 H   0  0  0  0  0  0  0  0  0  0  0  0
  -19.0892   -8.9320  -34.9752 H   0  0  0  0  0  0  0  0  0  0  0  0
  -23.3075   -3.8638  -21.9735 H   0  0  0  0  0  0  0  0  0  0  0  0
  -26.9605   -5.2921  -23.7272 H   0  0  0  0  0  0  0  0  0  0  0  0
  -17.4158   -6.9052  -26.0158 H   0  0  0  0  0  0  0  0  0  0  0  0
  -17.8742   -2.6199  -25.9971 H   0  0  0  0  0  0  0  0  0  0  0  0
  -15.0731   -4.5000  -23.3431 H   0  0  0  0  0  0  0  0  0  0  0  0
  -23.3480   -4.5528  -29.4418 H   0  0  0  0  0  0  0  0  0  0  0  0
  -22.3912   -3.1276  -28.9878 H   0  0  0  0  0  0  0  0  0  0  0  0
  -19.7460   -6.7110  -27.1258 H   0  0  0  0  0  0  0  0  0  0  0  0
  -18.5318   -6.5241  -28.4288 H   0  0  0  0  0  0  0  0  0  0  0  0
  -18.5580   -3.5032  -28.7234 H   0  0  0  0  0  0  0  0  0  0  0  0
  -19.7757   -3.0864  -27.4719 H   0  0  0  0  0  0  0  0  0  0  0  0
  -19.4515   -4.5399  -30.5288 H   0  0  0  0  0  0  0  0  0  0  0  0
  -20.2479   -6.1367  -30.4511 H   0  0  0  0  0  0  0  0  0  0  0  0
  -22.1158   -6.0924  -28.1859 H   0  0  0  0  0  0  0  0  0  0  0  0
  -22.3889   -5.9453  -33.3696 H   0  0  0  0  0  0  0  0  0  0  0  0
  -22.3299   -4.5927  -34.4661 H   0  0  0  0  0  0  0  0  0  0  0  0
  -21.5000   -5.1948  -26.0164 H   0  0  0  0  0  0  0  0  0  0  0  0
  -21.5988   -3.5169  -26.6500 H   0  0  0  0  0  0  0  0  0  0  0  0
  -20.1164   -4.8866  -32.3514 H   0  0  0  0  0  0  0  0  0  0  0  0
  -24.0366   -4.5092  -27.2988 H   0  0  0  0  0  0  0  0  0  0  0  0
  -21.2439   -2.7003  -33.9663 H   0  0  0  0  0  0  0  0  0  0  0  0
  -19.6808   -3.2551  -33.9323 H   0  0  0  0  0  0  0  0  0  0  0  0
  -20.2983   -2.4341  -32.6294 H   0  0  0  0  0  0  0  0  0  0  0  0
  -17.9002   -8.8691  -36.8663 H   0  0  0  0  0  0  0  0  0  0  0  0
  1  5  1  0  0  0  0
  1 12  2  0  0  0  0
  2  6  2  0  0  0  0
  2 12  1  0  0  0  0
  3  7  1  0  0  0  0
  3 14  2  0  0  0  0
  4  8  2  0  0  0  0
  4 14  1  0  0  0  0
  5 15  2  0  0  0  0
  6 15  1  0  0  0  0
  7 16  2  0  0  0  0
  8 16  1  0  0  0  0
  9 13  2  0  0  0  0
  9 17  1  0  0  0  0
 10 13  1  0  0  0  0
 10 18  2  0  0  0  0
 11 17  2  0  0  0  0
 11 18  1  0  0  0  0
 12 26  1  0  0  0  0
 13 29  1  0  0  0  0
 14 31  1  0  0  0  0
 15 34  1  0  0  0  0
 16 35  1  0  0  0  0
 17 36  1  0  0  0  0
 18 37  1  0  0  0  0
 19 28  1  0  0  0  0
 19 30  1  0  0  0  0
 19 33  2  0  0  0  0
 20 24  1  0  0  0  0
 20 30  1  0  0  0  0
 21 25  1  0  0  0  0
 21 29  1  0  0  0  0
 22 25  1  0  0  0  0
 22 29  1  0  0  0  0
 23 25  1  0  0  0  0
 23 30  1  0  0  0  0
 24 25  1  0  0  0  0
 24 27  1  0  0  0  0
 26 28  1  0  0  0  0
 27 31  1  0  0  0  0
 28 32  1  0  0  0  0
  1 38  1  0  0  0  0
  2 39  1  0  0  0  0
  3 40  1  0  0  0  0
  4 41  1  0  0  0  0
  5 42  1  0  0  0  0
  6 43  1  0  0  0  0
  7 44  1  0  0  0  0
  8 45  1  0  0  0  0
  9 46  1  0  0  0  0
 10 47  1  0  0  0  0
 11 48  1  0  0  0  0
 20 49  1  0  0  0  0
 20 50  1  0  0  0  0
 21 51  1  0  0  0  0
 21 52  1  0  0  0  0
 22 53  1  0  0  0  0
 22 54  1  0  0  0  0
 23 55  1  0  0  0  0
 23 56  1  0  0  0  0
 24 57  1  0  0  0  0
 26 58  1  0  0  0  0
 26 59  1  0  0  0  0
 27 60  1  0  0  0  0
 27 61  1  0  0  0  0
 28 62  1  0  0  0  0
 31 63  1  0  0  0  0
 32 64  1  0  0  0  0
 32 65  1  0  0  0  0
 32 66  1  0  0  0  0
 34 67  1  0  0  0  0
M  CHG  1  32   1
M  END
> <SMILES>
N[C@H](Cc1ccc(cc1)O)C(=O)N1CC(CNc2ccc(cc2)F)C2(C1)CN(C2)c1cc(cc(c1)F)F

> <FORMATTED_ID>
H3D-008559

> <MOLFORMULA>
C28H29F3N4O2

> <Exact Mass>
510.22

> <XLogP>
3.26

> <TPSA_NOPS>
81.8

> <s_m_source_file>
ligprep_h3d.sdf

> <i_m_source_file_index>
4957

> <i_lp_mmshare_version>
55123

> <i_f3d_flags>
0

> <s_epik_input>
W2NIXTFbY0hdYyhbT0hdKVtjSF1bY0hdYzFbQ0gyXVtDQEBIXShbTkgyXSlDKD1PKU4oW0NIMl0yKVtDSDJdW0NASF0oW0NIMl1bTkhdYzNbY0hdW2NIXWMoRilbY0hdW2NIXTMpQzI0W0NIMl1OKFtDSDJdNCljNVtjSF1jKEYpW2NIXWMoRilbY0hdNQ==

> <s_epik_cmdline>
J2VwaWtfcHl0aG9uJywgJy1waHQnLCAnMC41JywgJy1waCcsICc3LjUnLCAnLXRuJywgJzgnLCAnLW1hJywgJzUwMCcsICctaW1hZScsICc8aW5maWxlLm1hZT4nLCAnLW9tYWUnLCAnPG91dGZpbGUubWFlPic=

> <r_lp_tautomer_probability>
1

> <r_epik_Ionization_Penalty>
0.41475

> <r_epik_Ionization_Penalty_Charging>
0.403078

> <r_epik_Ionization_Penalty_Neutral>
0.0116725

> <r_epik_State_Penalty>
0.402571

> <r_epik_Charging_Adjusted_Penalty>
0.805649

> <i_epik_Tot_Q>
1

> <i_epik_Tot_abs_Q>
1

> <s_lp_Force_Field>
S-OPLS

> <r_lp_Energy>
33.6035

> <b_lp_Chiralities_Consistent>
1

> <s_lp_Variant>
ligprep_h3d.sdf:4957-1

> <ROCS_ShapeQuery>
_7L13

> <ROCS_TanimotoCombo>
0.735 

> <ROCS_ShapeTanimoto>
0.682 

> <ROCS_ColorTanimoto>
0.053 

> <ROCS_RefTversky>
0.816 

> <ROCS_RefColorTversky>
0.111 

> <ROCS_RefTverskyCombo>
0.927 

> <ROCS_FitTversky>
0.806 

> <ROCS_FitColorTversky>
0.093 

> <ROCS_FitTverskyCombo>
0.899 

> <ROCS_ColorScore>
-1.010

> <ROCS_Overlap>
1356.225

> <ROCS_Rank>
73                  

$$$$
ligprep_h3d.sdf:2720_1474
  -OEChem-08212117123D

118122  0     1  0  0  0  0  0999 V2000
  -25.2648   -4.1650  -23.1854 C   0  0  0  0  0  0  0  0  0  0  0  0
  -23.1622   -3.8649  -24.3368 C   0  0  0  0  0  0  0  0  0  0  0  0
  -24.0338   -3.5199  -23.3039 C   0  0  0  0  0  0  0  0  0  0  0  0
  -25.6243   -5.1552  -24.0997 C   0  0  0  0  0  0  0  0  0  0  0  0
  -23.5217   -4.8551  -25.2512 C   0  0  0  0  0  0  0  0  0  0  0  0
  -24.7527   -5.5002  -25.1327 C   0  0  0  0  0  0  0  0  0  0  0  0
  -21.3598   -5.0347  -29.2244 C   0  0  0  0  0  0  0  0  0  0  0  0
  -17.9072   -6.1106  -25.7354 C   0  0  0  0  0  0  0  0  0  0  0  0
  -20.9043   -5.0680  -27.9665 C   0  0  0  0  0  0  0  0  0  0  0  0
  -16.8184   -5.4531  -25.2929 C   0  0  0  0  0  0  0  0  0  0  0  0
  -21.6812   -4.3714  -26.8914 C   0  0  0  0  0  0  0  0  0  0  0  0
  -23.7563   -2.3188  -29.0460 C   0  0  0  0  0  0  0  0  0  0  0  0
  -20.5014   -4.8352  -35.4951 C   0  0  0  0  0  0  0  0  0  0  0  0
  -18.4712   -8.1573  -36.1825 C   0  0  0  0  0  0  0  0  0  0  0  0
  -20.9021   -4.2913  -34.1261 C   0  0  0  0  0  0  0  0  0  0  0  0
  -18.9318   -7.7399  -34.7828 C   0  0  0  0  0  0  0  0  0  0  0  0
  -19.2548   -6.0892  -30.4267 C   0  0  0  0  0  0  0  0  0  0  0  0
  -22.5150   -4.3253  -31.2255 C   0  0  0  0  0  0  0  0  0  0  0  0
  -20.7217   -5.6718  -30.4338 C   0  0  2  0  0  0  0  0  0  0  0  0
  -22.5825   -4.2684  -29.6827 C   0  0  2  0  0  0  0  0  0  0  0  0
  -19.0243   -5.2677  -35.5453 C   0  0  2  0  0  0  0  0  0  0  0  0
  -19.2156   -5.8120  -32.9984 C   0  0  1  0  0  0  0  0  0  0  0  0
  -18.5756   -5.7438  -36.9648 C   0  0  1  0  0  0  0  0  0  0  0  0
  -18.9374   -7.2050  -37.2784 C   0  0  2  0  0  0  0  0  0  0  0  0
  -18.8652   -6.7214  -31.7787 C   0  0  2  0  0  0  0  0  0  0  0  0
  -18.6064   -6.2722  -34.4025 C   0  0  1  0  0  0  0  0  0  0  0  0
  -20.7308   -5.3226  -32.9862 C   0  0  1  0  0  0  0  0  0  0  0  0
  -21.0298   -4.6489  -31.5607 C   0  0  1  0  0  0  0  0  0  0  0  0
  -23.6496   -2.4613  -22.3262 C   0  0  0  0  0  0  0  0  0  0  0  0
  -15.4937   -6.0795  -24.9615 C   0  0  0  0  0  0  0  0  0  0  0  0
  -16.8617   -3.9607  -25.0950 C   0  0  0  0  0  0  0  0  0  0  0  0
  -23.6296   -0.8442  -29.2814 C   0  0  0  0  0  0  0  0  0  0  0  0
  -19.0342   -4.8100  -38.0925 C   0  0  0  0  0  0  0  0  0  0  0  0
  -17.0473   -6.1889  -34.2631 C   0  0  0  0  0  0  0  0  0  0  0  0
  -21.7495   -6.4635  -33.2610 C   0  0  0  0  0  0  0  0  0  0  0  0
  -20.2259   -3.3161  -31.3716 C   0  0  0  0  0  0  0  0  0  0  0  0
  -29.7965   -6.6228  -23.8958 C   0  0  0  0  0  0  0  0  0  0  0  0
  -29.4939   -3.6223  -25.7176 C   0  0  0  0  0  0  0  0  0  0  0  0
  -26.9465   -5.8343  -23.9559 C   0  0  0  0  0  0  0  0  0  0  0  0
  -19.2576   -5.5468  -26.0840 C   0  0  0  0  0  0  0  0  0  0  0  0
  -19.5924   -5.6999  -27.5743 C   0  0  0  0  0  0  0  0  0  0  0  0
  -29.0346   -6.4081  -25.1852 C   0  0  0  0  0  0  0  0  0  0  0  0
  -28.5327   -4.0345  -24.6243 C   0  0  0  0  0  0  0  0  0  0  0  0
  -22.6255   -5.1932  -26.2936 N   0  0  0  0  0  0  0  0  0  0  0  0
  -27.9515   -5.3848  -24.9573 N   0  3  0  0  0  0  0  0  0  0  0  0
  -21.3979   -3.2136  -26.6017 O   0  0  0  0  0  0  0  0  0  0  0  0
  -24.8019   -2.8767  -28.7413 O   0  0  0  0  0  0  0  0  0  0  0  0
  -25.1079   -6.4694  -26.0253 O   0  0  0  0  0  0  0  0  0  0  0  0
  -20.3312   -7.3653  -37.5221 O   0  0  0  0  0  0  0  0  0  0  0  0
  -19.4992   -7.9909  -31.8928 O   0  0  0  0  0  0  0  0  0  0  0  0
  -22.5428   -2.9268  -29.2219 O   0  0  0  0  0  0  0  0  0  0  0  0
  -25.9439   -3.8955  -22.3798 H   0  0  0  0  0  0  0  0  0  0  0  0
  -22.2028   -3.3601  -24.4267 H   0  0  0  0  0  0  0  0  0  0  0  0
  -17.8285   -7.1883  -25.8763 H   0  0  0  0  0  0  0  0  0  0  0  0
  -21.1633   -5.6488  -35.7996 H   0  0  0  0  0  0  0  0  0  0  0  0
  -20.6734   -4.0258  -36.2139 H   0  0  0  0  0  0  0  0  0  0  0  0
  -17.3777   -8.2290  -36.2037 H   0  0  0  0  0  0  0  0  0  0  0  0
  -18.8539   -9.1661  -36.3824 H   0  0  0  0  0  0  0  0  0  0  0  0
  -20.2885   -3.4023  -33.9443 H   0  0  0  0  0  0  0  0  0  0  0  0
  -21.9420   -3.9436  -34.1679 H   0  0  0  0  0  0  0  0  0  0  0  0
  -20.0000   -7.9371  -34.7242 H   0  0  0  0  0  0  0  0  0  0  0  0
  -18.4605   -8.4288  -34.0719 H   0  0  0  0  0  0  0  0  0  0  0  0
  -18.6049   -5.2326  -30.2152 H   0  0  0  0  0  0  0  0  0  0  0  0
  -19.0901   -6.8201  -29.6254 H   0  0  0  0  0  0  0  0  0  0  0  0
  -23.1839   -5.1277  -31.5491 H   0  0  0  0  0  0  0  0  0  0  0  0
  -22.8533   -3.3974  -31.6990 H   0  0  0  0  0  0  0  0  0  0  0  0
  -21.3099   -6.5864  -30.5872 H   0  0  0  0  0  0  0  0  0  0  0  0
  -23.5028   -4.7390  -29.3202 H   0  0  0  0  0  0  0  0  0  0  0  0
  -18.4612   -4.3391  -35.3593 H   0  0  0  0  0  0  0  0  0  0  0  0
  -18.6397   -4.8985  -32.8038 H   0  0  0  0  0  0  0  0  0  0  0  0
  -17.4834   -5.6897  -36.9855 H   0  0  0  0  0  0  0  0  0  0  0  0
  -18.4208   -7.5000  -38.2247 H   0  0  0  0  0  0  0  0  0  0  0  0
  -17.7880   -6.9089  -31.7480 H   0  0  0  0  0  0  0  0  0  0  0  0
  -23.1196   -2.9031  -21.4735 H   0  0  0  0  0  0  0  0  0  0  0  0
  -22.9978   -1.7090  -22.7890 H   0  0  0  0  0  0  0  0  0  0  0  0
  -24.5321   -1.9280  -21.9491 H   0  0  0  0  0  0  0  0  0  0  0  0
  -14.8538   -6.0947  -25.8500 H   0  0  0  0  0  0  0  0  0  0  0  0
  -14.9457   -5.5604  -24.1734 H   0  0  0  0  0  0  0  0  0  0  0  0
  -15.6404   -7.1121  -24.6273 H   0  0  0  0  0  0  0  0  0  0  0  0
  -17.1835   -3.7231  -24.0756 H   0  0  0  0  0  0  0  0  0  0  0  0
  -15.8860   -3.4892  -25.2528 H   0  0  0  0  0  0  0  0  0  0  0  0
  -17.5673   -3.5057  -25.7979 H   0  0  0  0  0  0  0  0  0  0  0  0
  -23.3831   -0.3388  -28.3444 H   0  0  0  0  0  0  0  0  0  0  0  0
  -24.5620   -0.4533  -29.6966 H   0  0  0  0  0  0  0  0  0  0  0  0
  -22.8251   -0.6594  -29.9993 H   0  0  0  0  0  0  0  0  0  0  0  0
  -20.1196   -4.8060  -38.1406 H   0  0  0  0  0  0  0  0  0  0  0  0
  -18.6312   -5.1600  -39.0388 H   0  0  0  0  0  0  0  0  0  0  0  0
  -18.6766   -3.8029  -37.8967 H   0  0  0  0  0  0  0  0  0  0  0  0
  -16.7940   -5.1772  -33.9988 H   0  0  0  0  0  0  0  0  0  0  0  0
  -16.6172   -6.4602  -35.2113 H   0  0  0  0  0  0  0  0  0  0  0  0
  -16.7487   -6.8768  -33.4916 H   0  0  0  0  0  0  0  0  0  0  0  0
  -21.6547   -7.2028  -32.4794 H   0  0  0  0  0  0  0  0  0  0  0  0
  -21.5233   -6.9002  -34.2225 H   0  0  0  0  0  0  0  0  0  0  0  0
  -22.7438   -6.0417  -33.2627 H   0  0  0  0  0  0  0  0  0  0  0  0
  -19.1944   -3.5194  -31.5992 H   0  0  0  0  0  0  0  0  0  0  0  0
  -20.3426   -3.0044  -30.3487 H   0  0  0  0  0  0  0  0  0  0  0  0
  -20.6353   -2.5867  -32.0481 H   0  0  0  0  0  0  0  0  0  0  0  0
  -29.1273   -7.0101  -23.1214 H   0  0  0  0  0  0  0  0  0  0  0  0
  -30.2295   -5.6855  -23.5312 H   0  0  0  0  0  0  0  0  0  0  0  0
  -30.6097   -7.3434  -24.0318 H   0  0  0  0  0  0  0  0  0  0  0  0
  -28.9654   -3.5335  -26.6718 H   0  0  0  0  0  0  0  0  0  0  0  0
  -30.2932   -4.3605  -25.8409 H   0  0  0  0  0  0  0  0  0  0  0  0
  -29.9554   -2.6546  -25.4949 H   0  0  0  0  0  0  0  0  0  0  0  0
  -26.8560   -6.9218  -24.0752 H   0  0  0  0  0  0  0  0  0  0  0  0
  -27.3891   -5.6485  -22.9685 H   0  0  0  0  0  0  0  0  0  0  0  0
  -20.0597   -5.9724  -25.4749 H   0  0  0  0  0  0  0  0  0  0  0  0
  -19.2403   -4.4763  -25.8429 H   0  0  0  0  0  0  0  0  0  0  0  0
  -19.5907   -6.7659  -27.8381 H   0  0  0  0  0  0  0  0  0  0  0  0
  -18.7871   -5.2464  -28.1659 H   0  0  0  0  0  0  0  0  0  0  0  0
  -29.6811   -6.0207  -25.9775 H   0  0  0  0  0  0  0  0  0  0  0  0
  -28.5440   -7.3253  -25.5226 H   0  0  0  0  0  0  0  0  0  0  0  0
  -29.0359   -4.1307  -23.6583 H   0  0  0  0  0  0  0  0  0  0  0  0
  -27.6951   -3.3367  -24.5380 H   0  0  0  0  0  0  0  0  0  0  0  0
  -22.6811   -6.1595  -26.6090 H   0  0  0  0  0  0  0  0  0  0  0  0
  -27.4634   -5.2744  -25.8611 H   0  0  0  0  0  0  0  0  0  0  0  0
  -24.4029   -6.5946  -26.6786 H   0  0  0  0  0  0  0  0  0  0  0  0
  -20.4590   -8.2862  -37.7977 H   0  0  0  0  0  0  0  0  0  0  0  0
  -19.1806   -8.5283  -31.1504 H   0  0  0  0  0  0  0  0  0  0  0  0
  1  3  1  0  0  0  0
  1  4  2  0  0  0  0
  2  3  2  0  0  0  0
  2  5  1  0  0  0  0
  3 29  1  0  0  0  0
  4  6  1  0  0  0  0
  4 39  1  0  0  0  0
  5  6  2  0  0  0  0
  5 44  1  0  0  0  0
  6 48  1  0  0  0  0
  7  9  2  0  0  0  0
  7 19  1  0  0  0  0
  7 20  1  0  0  0  0
  8 10  2  0  0  0  0
  8 40  1  0  0  0  0
  9 11  1  0  0  0  0
  9 41  1  0  0  0  0
 10 30  1  0  0  0  0
 10 31  1  0  0  0  0
 11 44  1  0  0  0  0
 11 46  2  0  0  0  0
 12 32  1  0  0  0  0
 12 47  2  0  0  0  0
 12 51  1  0  0  0  0
 13 15  1  0  0  0  0
 13 21  1  0  0  0  0
 14 16  1  0  0  0  0
 14 24  1  0  0  0  0
 15 27  1  0  0  0  0
 16 26  1  0  0  0  0
 17 19  1  0  0  0  0
 17 25  1  0  0  0  0
 18 20  1  0  0  0  0
 18 28  1  0  0  0  0
 19 28  1  0  0  0  0
 20 51  1  0  0  0  0
 21 23  1  0  0  0  0
 21 26  1  0  0  0  0
 22 25  1  0  0  0  0
 22 26  1  0  0  0  0
 22 27  1  0  0  0  0
 23 24  1  0  0  0  0
 23 33  1  0  0  0  0
 24 49  1  0  0  0  0
 25 50  1  0  0  0  0
 26 34  1  0  0  0  0
 27 28  1  0  0  0  0
 27 35  1  0  0  0  0
 28 36  1  0  0  0  0
 37 42  1  0  0  0  0
 38 43  1  0  0  0  0
 39 45  1  0  0  0  0
 40 41  1  0  0  0  0
 42 45  1  0  0  0  0
 43 45  1  0  0  0  0
  1 52  1  0  0  0  0
  2 53  1  0  0  0  0
  8 54  1  0  0  0  0
 13 55  1  0  0  0  0
 13 56  1  0  0  0  0
 14 57  1  0  0  0  0
 14 58  1  0  0  0  0
 15 59  1  0  0  0  0
 15 60  1  0  0  0  0
 16 61  1  0  0  0  0
 16 62  1  0  0  0  0
 17 63  1  0  0  0  0
 17 64  1  0  0  0  0
 18 65  1  0  0  0  0
 18 66  1  0  0  0  0
 19 67  1  0  0  0  0
 20 68  1  0  0  0  0
 21 69  1  0  0  0  0
 22 70  1  0  0  0  0
 23 71  1  0  0  0  0
 24 72  1  0  0  0  0
 25 73  1  0  0  0  0
 29 74  1  0  0  0  0
 29 75  1  0  0  0  0
 29 76  1  0  0  0  0
 30 77  1  0  0  0  0
 30 78  1  0  0  0  0
 30 79  1  0  0  0  0
 31 80  1  0  0  0  0
 31 81  1  0  0  0  0
 31 82  1  0  0  0  0
 32 83  1  0  0  0  0
 32 84  1  0  0  0  0
 32 85  1  0  0  0  0
 33 86  1  0  0  0  0
 33 87  1  0  0  0  0
 33 88  1  0  0  0  0
 34 89  1  0  0  0  0
 34 90  1  0  0  0  0
 34 91  1  0  0  0  0
 35 92  1  0  0  0  0
 35 93  1  0  0  0  0
 35 94  1  0  0  0  0
 36 95  1  0  0  0  0
 36 96  1  0  0  0  0
 36 97  1  0  0  0  0
 37 98  1  0  0  0  0
 37 99  1  0  0  0  0
 37100  1  0  0  0  0
 38101  1  0  0  0  0
 38102  1  0  0  0  0
 38103  1  0  0  0  0
 39104  1  0  0  0  0
 39105  1  0  0  0  0
 40106  1  0  0  0  0
 40107  1  0  0  0  0
 41108  1  0  0  0  0
 41109  1  0  0  0  0
 42110  1  0  0  0  0
 42111  1  0  0  0  0
 43112  1  0  0  0  0
 43113  1  0  0  0  0
 44114  1  0  0  0  0
 45115  1  0  0  0  0
 48116  1  0  0  0  0
 49117  1  0  0  0  0
 50118  1  0  0  0  0
M  CHG  1  45   1
M  END
> <SMILES>
CCN(CC)Cc1cc(cc(c1O)NC(=O)/C(=C/1\[C@H](C[C@@]2(C)[C@H]1C[C@@H](O)[C@H]1[C@@]3(C)CC[C@@H](O)[C@@H](C)C3CC[C@@]12C)OC(=O)C)CCC=C(C)C)C

> <FORMATTED_ID>
H3D-008270

> <MOLFORMULA>
C43H66N2O6

> <Exact Mass>
706.49

> <XLogP>
7.74

> <TPSA_NOPS>
119.3

> <s_m_source_file>
ligprep_h3d.sdf

> <i_m_source_file_index>
2720

> <i_lp_mmshare_version>
55123

> <i_f3d_flags>
0

> <s_epik_input>
W0NIM11bQ0gyXU4oW0NIMl1bQ0gzXSlbQ0gyXWMxW2NIXWMoW0NIM10pW2NIXWMoYzFbT0hdKVtOSF1DKD1PKS9DKFtDSDJdW0NIMl1bQ0hdPUMoW0NIM10pW0NIM10pPUMoXFtDQEhdKFtDSDJdMilPQyg9TylbQ0gzXSlbQ0BASF0oW0NAXTIzW0NIM10pW0NIMl1bQ0BASF0oW09IXSlbQ0BIXTRbQ0BdNShbQ0gzXSlbQ0BASF0oW0NASF0oW0NIM10pW0NASF0oW09IXSlbQ0gyXVtDSDJdNSlbQ0gyXVtDSDJdW0NAXTM0W0NIM10=

> <s_epik_cmdline>
J2VwaWtfcHl0aG9uJywgJy1waHQnLCAnMC41JywgJy1waCcsICc3LjUnLCAnLXRuJywgJzgnLCAnLW1hJywgJzUwMCcsICctaW1hZScsICc8aW5maWxlLm1hZT4nLCAnLW9tYWUnLCAnPG91dGZpbGUubWFlPic=

> <r_lp_tautomer_probability>
1

> <r_epik_Ionization_Penalty>
0.142754

> <r_epik_Ionization_Penalty_Charging>
0.051509

> <r_epik_Ionization_Penalty_Neutral>
0.0912447

> <r_epik_State_Penalty>
-0

> <r_epik_Charging_Adjusted_Penalty>
0.051509

> <i_epik_Tot_Q>
1

> <i_epik_Tot_abs_Q>
1

> <s_epik_Chemistry_Notes>
This compound has an ester and may undergo hydrolysis at high or low pH.

> <s_lp_Force_Field>
S-OPLS

> <r_lp_Energy>
95.0357

> <b_lp_Chiralities_Consistent>
1

> <s_lp_Variant>
ligprep_h3d.sdf:2720-1

> <ROCS_ShapeQuery>
_7L13

> <ROCS_TanimotoCombo>
0.626 

> <ROCS_ShapeTanimoto>
0.549 

> <ROCS_ColorTanimoto>
0.077 

> <ROCS_RefTversky>
0.816 

> <ROCS_RefColorTversky>
0.204 

> <ROCS_RefTverskyCombo>
1.020 

> <ROCS_FitTversky>
0.626 

> <ROCS_FitColorTversky>
0.110 

> <ROCS_FitTverskyCombo>
0.736 

> <ROCS_ColorScore>
-1.932

> <ROCS_Overlap>
1378.224

> <ROCS_Rank>
74                  

$$$$
ligprep_h3d.sdf:5416_324
  -OEChem-08212117123D

 81 87  0     0  0  0  0  0  0999 V2000
  -20.5107   -7.2670  -33.5289 C   0  0  0  0  0  0  0  0  0  0  0  0
  -19.0799   -5.4781  -34.2967 C   0  0  0  0  0  0  0  0  0  0  0  0
  -20.5922   -7.7607  -34.8309 C   0  0  0  0  0  0  0  0  0  0  0  0
  -19.1613   -5.9718  -35.5988 C   0  0  0  0  0  0  0  0  0  0  0  0
  -23.0002   -4.0456  -28.8418 C   0  0  0  0  0  0  0  0  0  0  0  0
  -20.3127   -4.7488  -29.3061 C   0  0  0  0  0  0  0  0  0  0  0  0
  -14.8586   -6.4515  -26.2365 C   0  0  0  0  0  0  0  0  0  0  0  0
  -14.3376   -5.3708  -25.5745 C   0  0  0  0  0  0  0  0  0  0  0  0
  -22.1245   -4.2614  -27.7845 C   0  0  0  0  0  0  0  0  0  0  0  0
  -19.7546   -6.1256  -33.2618 C   0  0  0  0  0  0  0  0  0  0  0  0
  -20.7864   -4.6094  -28.0066 C   0  0  0  0  0  0  0  0  0  0  0  0
  -22.5210   -4.1771  -30.1445 C   0  0  0  0  0  0  0  0  0  0  0  0
  -21.1856   -4.5277  -30.3752 C   0  0  0  0  0  0  0  0  0  0  0  0
  -19.9175   -7.1131  -35.8658 C   0  0  0  0  0  0  0  0  0  0  0  0
  -16.4791   -4.9664  -25.9414 C   0  0  0  0  0  0  0  0  0  0  0  0
  -17.8534   -4.4035  -26.0302 C   0  0  0  0  0  0  0  0  0  0  0  0
  -18.3840   -6.4768  -27.1779 C   0  0  0  0  0  0  0  0  0  0  0  0
  -17.1317   -6.9629  -27.0836 C   0  0  0  0  0  0  0  0  0  0  0  0
  -18.7859   -5.1628  -26.6455 C   0  0  0  0  0  0  0  0  0  0  0  0
  -23.4649   -2.9054  -24.3879 C   0  0  0  0  0  0  0  0  0  0  0  0
  -23.6973   -5.4266  -24.4289 C   0  0  0  0  0  0  0  0  0  0  0  0
  -23.0939   -2.9103  -25.8719 C   0  0  0  0  0  0  0  0  0  0  0  0
  -23.2847   -5.4419  -25.9037 C   0  0  0  0  0  0  0  0  0  0  0  0
  -23.7858   -4.5072  -20.2914 C   0  0  0  0  0  0  0  0  0  0  0  0
  -26.1484   -4.7594  -20.7404 C   0  0  0  0  0  0  0  0  0  0  0  0
  -20.9681   -4.3396  -25.7222 C   0  0  0  0  0  0  0  0  0  0  0  0
  -23.4572   -4.6027  -21.7776 C   0  0  0  0  0  0  0  0  0  0  0  0
  -25.8885   -4.8623  -22.2396 C   0  0  0  0  0  0  0  0  0  0  0  0
  -24.3517   -4.1007  -24.0529 C   0  0  0  0  0  0  0  0  0  0  0  0
  -22.4159   -4.2269  -26.3023 C   0  0  0  0  0  0  0  0  0  0  0  0
  -25.2836   -5.1963  -18.5344 C   0  0  0  0  0  0  0  0  0  0  0  0
  -23.4508   -2.6388  -31.7018 C   0  0  0  0  0  0  0  0  0  0  0  0
  -19.6659   -5.5945  -31.8613 C   0  0  0  0  0  0  0  0  0  0  0  0
  -16.1926   -6.1776  -26.4543 N   0  0  0  0  0  0  0  0  0  0  0  0
  -15.3619   -4.4685  -25.4053 N   0  3  0  0  0  0  0  0  0  0  0  0
  -20.0776   -4.7825  -26.8020 N   0  0  0  0  0  0  0  0  0  0  0  0
  -25.0041   -5.2615  -19.9685 N   0  0  0  0  0  0  0  0  0  0  0  0
  -24.6324   -4.0991  -22.5771 N   0  3  0  0  0  0  0  0  0  0  0  0
  -23.3687   -3.9676  -31.1912 O   0  0  0  0  0  0  0  0  0  0  0  0
  -20.7209   -4.6592  -31.6506 O   0  0  0  0  0  0  0  0  0  0  0  0
  -19.9934   -7.5887  -37.1158 F   0  0  0  0  0  0  0  0  0  0  0  0
  -21.0405   -7.7779  -32.7292 H   0  0  0  0  0  0  0  0  0  0  0  0
  -18.4881   -4.5883  -34.0980 H   0  0  0  0  0  0  0  0  0  0  0  0
  -21.1801   -8.6495  -35.0389 H   0  0  0  0  0  0  0  0  0  0  0  0
  -18.6365   -5.4676  -36.4048 H   0  0  0  0  0  0  0  0  0  0  0  0
  -24.0395   -3.7903  -28.6612 H   0  0  0  0  0  0  0  0  0  0  0  0
  -19.2803   -5.0191  -29.5051 H   0  0  0  0  0  0  0  0  0  0  0  0
  -14.4604   -7.3854  -26.5856 H   0  0  0  0  0  0  0  0  0  0  0  0
  -13.3734   -5.1022  -25.1906 H   0  0  0  0  0  0  0  0  0  0  0  0
  -18.0614   -3.4271  -25.6106 H   0  0  0  0  0  0  0  0  0  0  0  0
  -19.1468   -7.0741  -27.6695 H   0  0  0  0  0  0  0  0  0  0  0  0
  -16.8264   -7.9261  -27.4711 H   0  0  0  0  0  0  0  0  0  0  0  0
  -22.5511   -2.9229  -23.7811 H   0  0  0  0  0  0  0  0  0  0  0  0
  -23.9874   -1.9704  -24.1522 H   0  0  0  0  0  0  0  0  0  0  0  0
  -24.3925   -6.2547  -24.2441 H   0  0  0  0  0  0  0  0  0  0  0  0
  -22.8180   -5.6092  -23.7996 H   0  0  0  0  0  0  0  0  0  0  0  0
  -24.0105   -2.7506  -26.4549 H   0  0  0  0  0  0  0  0  0  0  0  0
  -22.4457   -2.0515  -26.0890 H   0  0  0  0  0  0  0  0  0  0  0  0
  -22.7601   -6.3816  -26.1208 H   0  0  0  0  0  0  0  0  0  0  0  0
  -24.1984   -5.4578  -26.5135 H   0  0  0  0  0  0  0  0  0  0  0  0
  -22.9379   -4.9194  -19.7309 H   0  0  0  0  0  0  0  0  0  0  0  0
  -23.8844   -3.4531  -19.9995 H   0  0  0  0  0  0  0  0  0  0  0  0
  -26.3781   -3.7194  -20.4723 H   0  0  0  0  0  0  0  0  0  0  0  0
  -27.0387   -5.3568  -20.5090 H   0  0  0  0  0  0  0  0  0  0  0  0
  -20.6135   -3.3633  -25.3654 H   0  0  0  0  0  0  0  0  0  0  0  0
  -20.9137   -5.0302  -24.8735 H   0  0  0  0  0  0  0  0  0  0  0  0
  -22.6004   -3.9701  -22.0248 H   0  0  0  0  0  0  0  0  0  0  0  0
  -23.2590   -5.6335  -22.0878 H   0  0  0  0  0  0  0  0  0  0  0  0
  -25.7459   -5.8990  -22.5604 H   0  0  0  0  0  0  0  0  0  0  0  0
  -26.7068   -4.4083  -22.8051 H   0  0  0  0  0  0  0  0  0  0  0  0
  -25.3253   -4.0033  -24.5469 H   0  0  0  0  0  0  0  0  0  0  0  0
  -26.1980   -5.7660  -18.3122 H   0  0  0  0  0  0  0  0  0  0  0  0
  -24.4390   -5.6267  -17.9764 H   0  0  0  0  0  0  0  0  0  0  0  0
  -25.4239   -4.1470  -18.2356 H   0  0  0  0  0  0  0  0  0  0  0  0
  -24.1605   -2.6100  -32.5322 H   0  0  0  0  0  0  0  0  0  0  0  0
  -22.4632   -2.3162  -32.0411 H   0  0  0  0  0  0  0  0  0  0  0  0
  -23.7962   -1.9734  -30.9070 H   0  0  0  0  0  0  0  0  0  0  0  0
  -19.7547   -6.4040  -31.1289 H   0  0  0  0  0  0  0  0  0  0  0  0
  -18.7050   -5.0952  -31.6961 H   0  0  0  0  0  0  0  0  0  0  0  0
  -15.2811   -3.5658  -24.9455 H   0  0  0  0  0  0  0  0  0  0  0  0
  -24.7883   -3.1179  -22.3035 H   0  0  0  0  0  0  0  0  0  0  0  0
  1  3  1  0  0  0  0
  1 10  2  0  0  0  0
  2  4  2  0  0  0  0
  2 10  1  0  0  0  0
  3 14  2  0  0  0  0
  4 14  1  0  0  0  0
  5  9  1  0  0  0  0
  5 12  2  0  0  0  0
  6 11  1  0  0  0  0
  6 13  2  0  0  0  0
  7  8  2  0  0  0  0
  7 34  1  0  0  0  0
  8 35  1  0  0  0  0
  9 11  2  0  0  0  0
  9 30  1  0  0  0  0
 10 33  1  0  0  0  0
 11 36  1  0  0  0  0
 12 13  1  0  0  0  0
 12 39  1  0  0  0  0
 13 40  1  0  0  0  0
 14 41  1  0  0  0  0
 15 16  1  0  0  0  0
 15 34  1  0  0  0  0
 15 35  2  0  0  0  0
 16 19  2  0  0  0  0
 17 18  2  0  0  0  0
 17 19  1  0  0  0  0
 18 34  1  0  0  0  0
 19 36  1  0  0  0  0
 20 22  1  0  0  0  0
 20 29  1  0  0  0  0
 21 23  1  0  0  0  0
 21 29  1  0  0  0  0
 22 30  1  0  0  0  0
 23 30  1  0  0  0  0
 24 27  1  0  0  0  0
 24 37  1  0  0  0  0
 25 28  1  0  0  0  0
 25 37  1  0  0  0  0
 26 30  1  0  0  0  0
 26 36  1  0  0  0  0
 27 38  1  0  0  0  0
 28 38  1  0  0  0  0
 29 38  1  0  0  0  0
 31 37  1  0  0  0  0
 32 39  1  0  0  0  0
 33 40  1  0  0  0  0
  1 42  1  0  0  0  0
  2 43  1  0  0  0  0
  3 44  1  0  0  0  0
  4 45  1  0  0  0  0
  5 46  1  0  0  0  0
  6 47  1  0  0  0  0
  7 48  1  0  0  0  0
  8 49  1  0  0  0  0
 16 50  1  0  0  0  0
 17 51  1  0  0  0  0
 18 52  1  0  0  0  0
 20 53  1  0  0  0  0
 20 54  1  0  0  0  0
 21 55  1  0  0  0  0
 21 56  1  0  0  0  0
 22 57  1  0  0  0  0
 22 58  1  0  0  0  0
 23 59  1  0  0  0  0
 23 60  1  0  0  0  0
 24 61  1  0  0  0  0
 24 62  1  0  0  0  0
 25 63  1  0  0  0  0
 25 64  1  0  0  0  0
 26 65  1  0  0  0  0
 26 66  1  0  0  0  0
 27 67  1  0  0  0  0
 27 68  1  0  0  0  0
 28 69  1  0  0  0  0
 28 70  1  0  0  0  0
 29 71  1  0  0  0  0
 31 72  1  0  0  0  0
 31 73  1  0  0  0  0
 31 74  1  0  0  0  0
 32 75  1  0  0  0  0
 32 76  1  0  0  0  0
 32 77  1  0  0  0  0
 33 78  1  0  0  0  0
 33 79  1  0  0  0  0
 35 80  1  0  0  0  0
 38 81  1  0  0  0  0
M  CHG  2  35   1  38   1
M  END
> <SMILES>
COc1cc2c(cc1OCc1ccc(cc1)F)N(CC12CCC(CC1)N1CCN(C)CC1)c1ccn2ccnc2c1

> <FORMATTED_ID>
H3D-015300

> <MOLFORMULA>
C33H38FN5O2

> <Exact Mass>
555.3

> <XLogP>
6.64

> <TPSA_NOPS>
45.5

> <s_m_source_file>
ligprep_h3d.sdf

> <i_m_source_file_index>
5416

> <i_lp_mmshare_version>
55123

> <i_f3d_flags>
0

> <s_epik_input>
W2NIXTFbY0hdYyhGKVtjSF1bY0hdYzFbQ0gyXU9jKGMoW2NIXTIpT1tDSDNdKVtjSF1jKE4oW0NIMl0zKWMoW2NIXVtjSF00KVtjSF1jKG40NSluW2NIXVtjSF01KWMyW0NAXTM2W0NIMl1bQ0gyXVtDQEhdKFtDSDJdW0NIMl02KU43W0NIMl1bQ0gyXU4oW0NIM10pW0NIMl1bQ0gyXTc=

> <s_epik_cmdline>
J2VwaWtfcHl0aG9uJywgJy1waHQnLCAnMC41JywgJy1waCcsICc3LjUnLCAnLXRuJywgJzgnLCAnLW1hJywgJzUwMCcsICctaW1hZScsICc8aW5maWxlLm1hZT4nLCAnLW9tYWUnLCAnPG91dGZpbGUubWFlPic=

> <r_lp_tautomer_probability>
1

> <r_epik_Ionization_Penalty>
0.33846

> <r_epik_Ionization_Penalty_Charging>
0.0012948

> <r_epik_Ionization_Penalty_Neutral>
0.337165

> <r_epik_State_Penalty>
0.331847

> <r_epik_Charging_Adjusted_Penalty>
0.333142

> <i_epik_Tot_Q>
2

> <i_epik_Tot_abs_Q>
2

> <s_lp_Force_Field>
S-OPLS

> <r_lp_Energy>
104.176

> <b_lp_Chiralities_Consistent>
1

> <s_lp_Variant>
ligprep_h3d.sdf:5416-1

> <ROCS_ShapeQuery>
_7L13

> <ROCS_TanimotoCombo>
0.717 

> <ROCS_ShapeTanimoto>
0.621 

> <ROCS_ColorTanimoto>
0.096 

> <ROCS_RefTversky>
0.816 

> <ROCS_RefColorTversky>
0.218 

> <ROCS_RefTverskyCombo>
1.034 

> <ROCS_FitTversky>
0.722 

> <ROCS_FitColorTversky>
0.147 

> <ROCS_FitTverskyCombo>
0.869 

> <ROCS_ColorScore>
-2.021

> <ROCS_Overlap>
1364.789

> <ROCS_Rank>
75                  

$$$$
ligprep_h3d.sdf:2658_972
  -OEChem-08212117123D

 74 77  0     0  0  0  0  0  0999 V2000
  -21.1133   -6.9841  -33.8437 C   0  0  0  0  0  0  0  0  0  0  0  0
  -19.4155   -5.7692  -32.6277 C   0  0  0  0  0  0  0  0  0  0  0  0
  -20.2753   -7.0406  -34.9573 C   0  0  0  0  0  0  0  0  0  0  0  0
  -18.5775   -5.8257  -33.7413 C   0  0  0  0  0  0  0  0  0  0  0  0
  -19.2721   -4.4367  -25.1964 C   0  0  0  0  0  0  0  0  0  0  0  0
  -18.6825   -4.9853  -27.4741 C   0  0  0  0  0  0  0  0  0  0  0  0
  -23.5830   -4.2469  -32.8169 C   0  0  0  0  0  0  0  0  0  0  0  0
  -24.3046   -1.9444  -32.4806 C   0  0  0  0  0  0  0  0  0  0  0  0
  -20.6835   -6.3483  -32.6789 C   0  0  0  0  0  0  0  0  0  0  0  0
  -19.0074   -6.4614  -34.9062 C   0  0  0  0  0  0  0  0  0  0  0  0
  -18.3224   -4.8415  -26.1343 C   0  0  0  0  0  0  0  0  0  0  0  0
  -20.5822   -4.1758  -25.5983 C   0  0  0  0  0  0  0  0  0  0  0  0
  -22.6604   -2.8909  -30.9925 C   0  0  0  0  0  0  0  0  0  0  0  0
  -22.7437   -4.0776  -31.7153 C   0  0  0  0  0  0  0  0  0  0  0  0
  -19.9925   -4.7244  -27.8761 C   0  0  0  0  0  0  0  0  0  0  0  0
  -20.9423   -4.3196  -26.9382 C   0  0  0  0  0  0  0  0  0  0  0  0
  -24.3663   -3.1483  -33.1861 C   0  0  0  0  0  0  0  0  0  0  0  0
  -23.4543   -1.7974  -31.3774 C   0  0  0  0  0  0  0  0  0  0  0  0
  -21.2952   -4.2357  -30.0504 C   0  0  0  0  0  0  0  0  0  0  0  0
  -16.8758   -6.2676  -24.6445 C   0  0  0  0  0  0  0  0  0  0  0  0
  -16.2644   -3.8616  -25.0612 C   0  0  0  0  0  0  0  0  0  0  0  0
  -15.9458   -5.5676  -26.8415 C   0  0  0  0  0  0  0  0  0  0  0  0
  -24.8242   -5.3488  -23.3846 C   0  0  0  0  0  0  0  0  0  0  0  0
  -22.9987   -4.1960  -22.0822 C   0  0  0  0  0  0  0  0  0  0  0  0
  -24.3149   -2.9163  -23.8106 C   0  0  0  0  0  0  0  0  0  0  0  0
  -21.5867   -6.2872  -31.4769 C   0  0  0  0  0  0  0  0  0  0  0  0
  -21.5891   -3.7415  -24.5744 C   0  0  0  0  0  0  0  0  0  0  0  0
  -16.9227   -5.1223  -25.7030 C   0  0  0  0  0  0  0  0  0  0  0  0
  -18.1113   -6.5237  -36.0967 C   0  0  0  0  0  0  0  0  0  0  0  0
  -23.7374   -4.2752  -23.4174 C   0  0  0  0  0  0  0  0  0  0  0  0
  -21.7556   -3.0080  -29.9624 N   0  0  0  0  0  0  0  0  0  0  0  0
  -21.8600   -4.9200  -31.0907 N   0  0  0  0  0  0  0  0  0  0  0  0
  -20.3423   -4.8751  -29.2361 N   0  0  0  0  0  0  0  0  0  0  0  0
  -22.7427   -4.6669  -24.4650 N   0  3  0  0  0  0  0  0  0  0  0  0
  -22.2248   -4.0647  -27.3277 O   0  0  0  0  0  0  0  0  0  0  0  0
  -18.6619   -7.1765  -37.1629 F   0  0  0  0  0  0  0  0  0  0  0  0
  -17.7540   -5.2959  -36.5769 F   0  0  0  0  0  0  0  0  0  0  0  0
  -16.9379   -7.1710  -35.8375 F   0  0  0  0  0  0  0  0  0  0  0  0
  -25.4268   -3.2862  -34.5388 Cl  0  0  0  0  0  0  0  0  0  0  0  0
  -23.3191   -0.3698  -30.4639 Cl  0  0  0  0  0  0  0  0  0  0  0  0
  -22.0997   -7.4378  -33.8927 H   0  0  0  0  0  0  0  0  0  0  0  0
  -19.0721   -5.2732  -31.7237 H   0  0  0  0  0  0  0  0  0  0  0  0
  -20.6181   -7.5394  -35.8599 H   0  0  0  0  0  0  0  0  0  0  0  0
  -17.5911   -5.3720  -33.6931 H   0  0  0  0  0  0  0  0  0  0  0  0
  -18.9908   -4.3256  -24.1518 H   0  0  0  0  0  0  0  0  0  0  0  0
  -17.9404   -5.3017  -28.2037 H   0  0  0  0  0  0  0  0  0  0  0  0
  -23.6225   -5.1865  -33.3573 H   0  0  0  0  0  0  0  0  0  0  0  0
  -24.9248   -1.1039  -32.7881 H   0  0  0  0  0  0  0  0  0  0  0  0
  -15.8566   -6.4941  -24.3102 H   0  0  0  0  0  0  0  0  0  0  0  0
  -17.4561   -6.0123  -23.7511 H   0  0  0  0  0  0  0  0  0  0  0  0
  -17.3022   -7.1874  -25.0620 H   0  0  0  0  0  0  0  0  0  0  0  0
  -15.2359   -4.0640  -24.7431 H   0  0  0  0  0  0  0  0  0  0  0  0
  -16.2250   -3.0081  -25.7482 H   0  0  0  0  0  0  0  0  0  0  0  0
  -16.8280   -3.5499  -24.1739 H   0  0  0  0  0  0  0  0  0  0  0  0
  -14.9305   -5.7620  -26.4752 H   0  0  0  0  0  0  0  0  0  0  0  0
  -16.2975   -6.4898  -27.3187 H   0  0  0  0  0  0  0  0  0  0  0  0
  -15.8667   -4.7925  -27.6127 H   0  0  0  0  0  0  0  0  0  0  0  0
  -25.3562   -5.4084  -24.3410 H   0  0  0  0  0  0  0  0  0  0  0  0
  -24.3928   -6.3355  -23.1825 H   0  0  0  0  0  0  0  0  0  0  0  0
  -25.5652   -5.1438  -22.6035 H   0  0  0  0  0  0  0  0  0  0  0  0
  -22.2183   -3.4268  -22.1020 H   0  0  0  0  0  0  0  0  0  0  0  0
  -22.5197   -5.1496  -21.8329 H   0  0  0  0  0  0  0  0  0  0  0  0
  -23.6887   -3.9480  -21.2679 H   0  0  0  0  0  0  0  0  0  0  0  0
  -23.5381   -2.1435  -23.8352 H   0  0  0  0  0  0  0  0  0  0  0  0
  -24.7723   -2.9592  -24.8055 H   0  0  0  0  0  0  0  0  0  0  0  0
  -25.0867   -2.5902  -23.1039 H   0  0  0  0  0  0  0  0  0  0  0  0
  -22.5435   -6.7856  -31.6748 H   0  0  0  0  0  0  0  0  0  0  0  0
  -21.1393   -6.8029  -30.6185 H   0  0  0  0  0  0  0  0  0  0  0  0
  -21.1392   -3.6805  -23.5777 H   0  0  0  0  0  0  0  0  0  0  0  0
  -21.9990   -2.7550  -24.8164 H   0  0  0  0  0  0  0  0  0  0  0  0
  -19.7989   -5.5844  -29.7175 H   0  0  0  0  0  0  0  0  0  0  0  0
  -23.2250   -4.7243  -25.3688 H   0  0  0  0  0  0  0  0  0  0  0  0
  -22.4059   -5.6140  -24.2587 H   0  0  0  0  0  0  0  0  0  0  0  0
  -22.3178   -4.2082  -28.2819 H   0  0  0  0  0  0  0  0  0  0  0  0
  1  3  1  0  0  0  0
  1  9  2  0  0  0  0
  2  4  2  0  0  0  0
  2  9  1  0  0  0  0
  3 10  2  0  0  0  0
  4 10  1  0  0  0  0
  5 11  1  0  0  0  0
  5 12  2  0  0  0  0
  6 11  2  0  0  0  0
  6 15  1  0  0  0  0
  7 14  2  0  0  0  0
  7 17  1  0  0  0  0
  8 17  2  0  0  0  0
  8 18  1  0  0  0  0
  9 26  1  0  0  0  0
 10 29  1  0  0  0  0
 11 28  1  0  0  0  0
 12 16  1  0  0  0  0
 12 27  1  0  0  0  0
 13 14  1  0  0  0  0
 13 18  2  0  0  0  0
 13 31  1  0  0  0  0
 14 32  1  0  0  0  0
 15 16  2  0  0  0  0
 15 33  1  0  0  0  0
 16 35  1  0  0  0  0
 17 39  1  0  0  0  0
 18 40  1  0  0  0  0
 19 31  2  0  0  0  0
 19 32  1  0  0  0  0
 19 33  1  0  0  0  0
 20 28  1  0  0  0  0
 21 28  1  0  0  0  0
 22 28  1  0  0  0  0
 23 30  1  0  0  0  0
 24 30  1  0  0  0  0
 25 30  1  0  0  0  0
 26 32  1  0  0  0  0
 27 34  1  0  0  0  0
 29 36  1  0  0  0  0
 29 37  1  0  0  0  0
 29 38  1  0  0  0  0
 30 34  1  0  0  0  0
  1 41  1  0  0  0  0
  2 42  1  0  0  0  0
  3 43  1  0  0  0  0
  4 44  1  0  0  0  0
  5 45  1  0  0  0  0
  6 46  1  0  0  0  0
  7 47  1  0  0  0  0
  8 48  1  0  0  0  0
 20 49  1  0  0  0  0
 20 50  1  0  0  0  0
 20 51  1  0  0  0  0
 21 52  1  0  0  0  0
 21 53  1  0  0  0  0
 21 54  1  0  0  0  0
 22 55  1  0  0  0  0
 22 56  1  0  0  0  0
 22 57  1  0  0  0  0
 23 58  1  0  0  0  0
 23 59  1  0  0  0  0
 23 60  1  0  0  0  0
 24 61  1  0  0  0  0
 24 62  1  0  0  0  0
 24 63  1  0  0  0  0
 25 64  1  0  0  0  0
 25 65  1  0  0  0  0
 25 66  1  0  0  0  0
 26 67  1  0  0  0  0
 26 68  1  0  0  0  0
 27 69  1  0  0  0  0
 27 70  1  0  0  0  0
 33 71  1  0  0  0  0
 34 72  1  0  0  0  0
 34 73  1  0  0  0  0
 35 74  1  0  0  0  0
M  CHG  1  34   1
M  END
> <SMILES>
CC(C)(C)NCc1cc(cc(c1O)Nc1nc2c(cc(cc2n1Cc1ccc(cc1)C(F)(F)F)Cl)Cl)C(C)(C)C

> <FORMATTED_ID>
H3D-007346

> <MOLFORMULA>
C30H33Cl2F3N4O

> <Exact Mass>
592.2

> <XLogP>
11.19

> <TPSA_NOPS>
62.1

> <s_m_source_file>
ligprep_h3d.sdf

> <i_m_source_file_index>
2658

> <i_lp_mmshare_version>
55123

> <i_f3d_flags>
0

> <s_epik_input>
W0NIM11DKFtDSDNdKShbQ0gzXSlbTkhdW0NIMl1jMVtjSF1jKEMoW0NIM10pKFtDSDNdKVtDSDNdKVtjSF1jKGMxW09IXSlbTkhdYyhuMiluKGMoYzIzKVtjSF1jKENsKVtjSF1jM0NsKVtDSDJdYzRbY0hdW2NIXWMoQyhGKShGKUYpW2NIXVtjSF00

> <s_epik_cmdline>
J2VwaWtfcHl0aG9uJywgJy1waHQnLCAnMC41JywgJy1waCcsICc3LjUnLCAnLXRuJywgJzgnLCAnLW1hJywgJzUwMCcsICctaW1hZScsICc8aW5maWxlLm1hZT4nLCAnLW9tYWUnLCAnPG91dGZpbGUubWFlPic=

> <r_epik_Ionization_Penalty>
0.0301641

> <r_epik_Ionization_Penalty_Charging>
0.0119739

> <r_epik_Ionization_Penalty_Neutral>
0.0181902

> <r_epik_State_Penalty>
0.0220284

> <r_epik_Charging_Adjusted_Penalty>
0.0340023

> <i_epik_Tot_Q>
1

> <i_epik_Tot_abs_Q>
1

> <s_lp_Force_Field>
S-OPLS

> <r_lp_Energy>
45.8526

> <b_lp_Chiralities_Consistent>
1

> <s_lp_Variant>
ligprep_h3d.sdf:2658-1

> <ROCS_ShapeQuery>
_7L13

> <ROCS_TanimotoCombo>
0.735 

> <ROCS_ShapeTanimoto>
0.648 

> <ROCS_ColorTanimoto>
0.087 

> <ROCS_RefTversky>
0.816 

> <ROCS_RefColorTversky>
0.185 

> <ROCS_RefTverskyCombo>
1.001 

> <ROCS_FitTversky>
0.759 

> <ROCS_FitColorTversky>
0.142 

> <ROCS_FitTverskyCombo>
0.901 

> <ROCS_ColorScore>
-1.690

> <ROCS_Overlap>
1360.444

> <ROCS_Rank>
76                  

$$$$
ligprep_h3d.sdf:5422_864
  -OEChem-08212117123D

 70 76  0     0  0  0  0  0  0999 V2000
  -18.6990   -6.2742  -35.3357 C   0  0  0  0  0  0  0  0  0  0  0  0
  -19.6799   -7.1877  -34.9498 C   0  0  0  0  0  0  0  0  0  0  0  0
  -18.6647   -5.0035  -34.7614 C   0  0  0  0  0  0  0  0  0  0  0  0
  -20.6266   -6.8305  -33.9897 C   0  0  0  0  0  0  0  0  0  0  0  0
  -19.6114   -4.6462  -33.8013 C   0  0  0  0  0  0  0  0  0  0  0  0
  -18.3236   -6.0221  -27.3432 C   0  0  0  0  0  0  0  0  0  0  0  0
  -18.2675   -4.7366  -25.3113 C   0  0  0  0  0  0  0  0  0  0  0  0
  -23.2781   -4.0336  -28.5956 C   0  0  0  0  0  0  0  0  0  0  0  0
  -20.5608   -4.5003  -29.1669 C   0  0  0  0  0  0  0  0  0  0  0  0
  -17.0220   -6.4105  -27.0698 C   0  0  0  0  0  0  0  0  0  0  0  0
  -16.9685   -5.1827  -25.1287 C   0  0  0  0  0  0  0  0  0  0  0  0
  -28.7477   -4.2700  -19.9679 C   0  0  0  0  0  0  0  0  0  0  0  0
  -29.1507   -4.9304  -21.1046 C   0  0  0  0  0  0  0  0  0  0  0  0
  -22.3628   -4.2763  -27.5783 C   0  0  0  0  0  0  0  0  0  0  0  0
  -20.5924   -5.5597  -33.4154 C   0  0  0  0  0  0  0  0  0  0  0  0
  -18.9511   -5.1690  -26.4422 C   0  0  0  0  0  0  0  0  0  0  0  0
  -21.0104   -4.5273  -27.8525 C   0  0  0  0  0  0  0  0  0  0  0  0
  -22.8245   -4.0215  -29.9130 C   0  0  0  0  0  0  0  0  0  0  0  0
  -21.4733   -4.2492  -30.1964 C   0  0  0  0  0  0  0  0  0  0  0  0
  -27.0333   -4.2843  -21.2443 C   0  0  0  0  0  0  0  0  0  0  0  0
  -25.7770   -4.1701  -21.9087 C   0  0  0  0  0  0  0  0  0  0  0  0
  -26.7144   -5.3639  -23.8153 C   0  0  0  0  0  0  0  0  0  0  0  0
  -27.9006   -5.4763  -23.1965 C   0  0  0  0  0  0  0  0  0  0  0  0
  -25.5987   -4.6829  -23.1490 C   0  0  0  0  0  0  0  0  0  0  0  0
  -23.3166   -5.6860  -25.7404 C   0  0  0  0  0  0  0  0  0  0  0  0
  -23.4341   -3.1707  -25.5532 C   0  0  0  0  0  0  0  0  0  0  0  0
  -23.6866   -5.7921  -24.2589 C   0  0  0  0  0  0  0  0  0  0  0  0
  -23.7473   -3.3219  -24.0651 C   0  0  0  0  0  0  0  0  0  0  0  0
  -21.1429   -4.3199  -25.5664 C   0  0  0  0  0  0  0  0  0  0  0  0
  -22.6131   -4.3567  -26.0926 C   0  0  0  0  0  0  0  0  0  0  0  0
  -23.9009   -2.4244  -31.3081 C   0  0  0  0  0  0  0  0  0  0  0  0
  -21.6106   -5.1747  -32.3828 C   0  0  0  0  0  0  0  0  0  0  0  0
  -16.3258   -6.0114  -25.9819 N   0  0  0  0  0  0  0  0  0  0  0  0
  -27.4378   -3.8730  -20.0597 N   0  0  0  0  0  0  0  0  0  0  0  0
  -28.0517   -4.9401  -21.9244 N   0  0  0  0  0  0  0  0  0  0  0  0
  -20.2640   -4.7471  -26.6726 N   0  0  0  0  0  0  0  0  0  0  0  0
  -24.4169   -4.6005  -23.8273 N   0  0  0  0  0  0  0  0  0  0  0  0
  -23.7097   -3.7836  -30.9216 O   0  0  0  0  0  0  0  0  0  0  0  0
  -21.0300   -4.2309  -31.4860 O   0  0  0  0  0  0  0  0  0  0  0  0
  -17.9611   -6.5530  -36.0823 H   0  0  0  0  0  0  0  0  0  0  0  0
  -19.7061   -8.1776  -35.3960 H   0  0  0  0  0  0  0  0  0  0  0  0
  -17.9005   -4.2924  -35.0608 H   0  0  0  0  0  0  0  0  0  0  0  0
  -21.3874   -7.5487  -33.6953 H   0  0  0  0  0  0  0  0  0  0  0  0
  -19.5771   -3.6539  -33.3594 H   0  0  0  0  0  0  0  0  0  0  0  0
  -18.8290   -6.3779  -28.2348 H   0  0  0  0  0  0  0  0  0  0  0  0
  -18.7274   -4.0711  -24.5884 H   0  0  0  0  0  0  0  0  0  0  0  0
  -24.3263   -3.8615  -28.3733 H   0  0  0  0  0  0  0  0  0  0  0  0
  -19.5145   -4.6774  -29.3993 H   0  0  0  0  0  0  0  0  0  0  0  0
  -16.4884   -7.0753  -27.7411 H   0  0  0  0  0  0  0  0  0  0  0  0
  -16.3921   -4.8750  -24.2624 H   0  0  0  0  0  0  0  0  0  0  0  0
  -29.3361   -4.0604  -19.0866 H   0  0  0  0  0  0  0  0  0  0  0  0
  -30.0919   -5.3787  -21.3917 H   0  0  0  0  0  0  0  0  0  0  0  0
  -24.9676   -3.6616  -21.3939 H   0  0  0  0  0  0  0  0  0  0  0  0
  -26.5685   -5.7732  -24.8092 H   0  0  0  0  0  0  0  0  0  0  0  0
  -28.7536   -5.9698  -23.6461 H   0  0  0  0  0  0  0  0  0  0  0  0
  -22.6877   -6.5428  -26.0153 H   0  0  0  0  0  0  0  0  0  0  0  0
  -24.2369   -5.7853  -26.3328 H   0  0  0  0  0  0  0  0  0  0  0  0
  -24.3831   -3.0839  -26.0988 H   0  0  0  0  0  0  0  0  0  0  0  0
  -22.9045   -2.2241  -25.7209 H   0  0  0  0  0  0  0  0  0  0  0  0
  -24.2837   -6.7003  -24.1097 H   0  0  0  0  0  0  0  0  0  0  0  0
  -22.7881   -5.9061  -23.6420 H   0  0  0  0  0  0  0  0  0  0  0  0
  -22.8280   -3.2752  -23.4693 H   0  0  0  0  0  0  0  0  0  0  0  0
  -24.3734   -2.4793  -23.7471 H   0  0  0  0  0  0  0  0  0  0  0  0
  -20.8623   -3.2974  -25.2765 H   0  0  0  0  0  0  0  0  0  0  0  0
  -20.9957   -4.9585  -24.6885 H   0  0  0  0  0  0  0  0  0  0  0  0
  -24.6303   -2.3749  -32.1203 H   0  0  0  0  0  0  0  0  0  0  0  0
  -22.9479   -1.9997  -31.6336 H   0  0  0  0  0  0  0  0  0  0  0  0
  -24.2750   -1.8602  -30.4506 H   0  0  0  0  0  0  0  0  0  0  0  0
  -22.4933   -4.7261  -32.8511 H   0  0  0  0  0  0  0  0  0  0  0  0
  -21.9398   -6.0527  -31.8166 H   0  0  0  0  0  0  0  0  0  0  0  0
  1  2  2  0  0  0  0
  1  3  1  0  0  0  0
  2  4  1  0  0  0  0
  3  5  2  0  0  0  0
  4 15  2  0  0  0  0
  5 15  1  0  0  0  0
  6 10  1  0  0  0  0
  6 16  2  0  0  0  0
  7 11  2  0  0  0  0
  7 16  1  0  0  0  0
  8 14  1  0  0  0  0
  8 18  2  0  0  0  0
  9 17  1  0  0  0  0
  9 19  2  0  0  0  0
 10 33  2  0  0  0  0
 11 33  1  0  0  0  0
 12 13  2  0  0  0  0
 12 34  1  0  0  0  0
 13 35  1  0  0  0  0
 14 17  2  0  0  0  0
 14 30  1  0  0  0  0
 15 32  1  0  0  0  0
 16 36  1  0  0  0  0
 17 36  1  0  0  0  0
 18 19  1  0  0  0  0
 18 38  1  0  0  0  0
 19 39  1  0  0  0  0
 20 21  1  0  0  0  0
 20 34  2  0  0  0  0
 20 35  1  0  0  0  0
 21 24  2  0  0  0  0
 22 23  2  0  0  0  0
 22 24  1  0  0  0  0
 23 35  1  0  0  0  0
 24 37  1  0  0  0  0
 25 27  1  0  0  0  0
 25 30  1  0  0  0  0
 26 28  1  0  0  0  0
 26 30  1  0  0  0  0
 27 37  1  0  0  0  0
 28 37  1  0  0  0  0
 29 30  1  0  0  0  0
 29 36  1  0  0  0  0
 31 38  1  0  0  0  0
 32 39  1  0  0  0  0
  1 40  1  0  0  0  0
  2 41  1  0  0  0  0
  3 42  1  0  0  0  0
  4 43  1  0  0  0  0
  5 44  1  0  0  0  0
  6 45  1  0  0  0  0
  7 46  1  0  0  0  0
  8 47  1  0  0  0  0
  9 48  1  0  0  0  0
 10 49  1  0  0  0  0
 11 50  1  0  0  0  0
 12 51  1  0  0  0  0
 13 52  1  0  0  0  0
 21 53  1  0  0  0  0
 22 54  1  0  0  0  0
 23 55  1  0  0  0  0
 25 56  1  0  0  0  0
 25 57  1  0  0  0  0
 26 58  1  0  0  0  0
 26 59  1  0  0  0  0
 27 60  1  0  0  0  0
 27 61  1  0  0  0  0
 28 62  1  0  0  0  0
 28 63  1  0  0  0  0
 29 64  1  0  0  0  0
 29 65  1  0  0  0  0
 31 66  1  0  0  0  0
 31 67  1  0  0  0  0
 31 68  1  0  0  0  0
 32 69  1  0  0  0  0
 32 70  1  0  0  0  0
M  END
> <SMILES>
COc1cc2c(cc1OCc1ccccc1)N(CC12CCN(CC1)c1ccn2ccnc2c1)c1ccncc1

> <FORMATTED_ID>
H3D-015666

> <MOLFORMULA>
C32H31N5O2

> <Exact Mass>
517.25

> <XLogP>
6.37

> <TPSA_NOPS>
55.1

> <s_m_source_file>
ligprep_h3d.sdf

> <i_m_source_file_index>
5422

> <i_lp_mmshare_version>
55123

> <i_f3d_flags>
0

> <s_epik_input>
W2NIXTFbY0hdW2NIXVtjSF1bY0hdYzFbQ0gyXU9jKGMoW2NIXTIpT1tDSDNdKVtjSF1jKE4oW0NIMl0zKWM0W2NIXVtjSF1uW2NIXVtjSF00KWMyQzM1W0NIMl1bQ0gyXU4oW0NIMl1bQ0gyXTUpYyhbY0hdW2NIXTYpW2NIXWMobjY3KW5bY0hdW2NIXTc=

> <s_epik_cmdline>
J2VwaWtfcHl0aG9uJywgJy1waHQnLCAnMC41JywgJy1waCcsICc3LjUnLCAnLXRuJywgJzgnLCAnLW1hJywgJzUwMCcsICctaW1hZScsICc8aW5maWxlLm1hZT4nLCAnLW9tYWUnLCAnPG91dGZpbGUubWFlPic=

> <r_lp_tautomer_probability>
1

> <r_epik_Ionization_Penalty>
0.367403

> <r_epik_Ionization_Penalty_Charging>
0.168733

> <r_epik_Ionization_Penalty_Neutral>
0.19867

> <r_epik_State_Penalty>
0.346288

> <r_epik_Charging_Adjusted_Penalty>
0.515021

> <i_epik_Tot_Q>
0

> <i_epik_Tot_abs_Q>
0

> <s_lp_Force_Field>
S-OPLS

> <r_lp_Energy>
79.4078

> <b_lp_Chiralities_Consistent>
1

> <s_lp_Variant>
ligprep_h3d.sdf:5422-1

> <ROCS_ShapeQuery>
_7L13

> <ROCS_TanimotoCombo>
0.697 

> <ROCS_ShapeTanimoto>
0.637 

> <ROCS_ColorTanimoto>
0.060 

> <ROCS_RefTversky>
0.816 

> <ROCS_RefColorTversky>
0.125 

> <ROCS_RefTverskyCombo>
0.940 

> <ROCS_FitTversky>
0.744 

> <ROCS_FitColorTversky>
0.104 

> <ROCS_FitTverskyCombo>
0.848 

> <ROCS_ColorScore>
-1.134

> <ROCS_Overlap>
1361.842

> <ROCS_Rank>
77                  

$$$$
ligprep_h3d.sdf:5188_1300
  -OEChem-08212117123D

 76 81  0     0  0  0  0  0  0999 V2000
  -18.9434   -5.7186  -34.9025 C   0  0  0  0  0  0  0  0  0  0  0  0
  -19.8587   -6.7154  -34.5645 C   0  0  0  0  0  0  0  0  0  0  0  0
  -18.9999   -4.4764  -34.2704 C   0  0  0  0  0  0  0  0  0  0  0  0
  -20.8306   -6.4699  -33.5946 C   0  0  0  0  0  0  0  0  0  0  0  0
  -19.9718   -4.2310  -33.3005 C   0  0  0  0  0  0  0  0  0  0  0  0
  -23.6875   -4.1147  -28.0926 C   0  0  0  0  0  0  0  0  0  0  0  0
  -20.9424   -4.3655  -28.6694 C   0  0  0  0  0  0  0  0  0  0  0  0
  -15.1560   -5.0927  -25.8283 C   0  0  0  0  0  0  0  0  0  0  0  0
  -15.0423   -6.3580  -25.3146 C   0  0  0  0  0  0  0  0  0  0  0  0
  -22.7634   -4.3529  -27.0823 C   0  0  0  0  0  0  0  0  0  0  0  0
  -20.8872   -5.2277  -32.9626 C   0  0  0  0  0  0  0  0  0  0  0  0
  -21.3970   -4.4804  -27.3607 C   0  0  0  0  0  0  0  0  0  0  0  0
  -23.2307   -4.0081  -29.4055 C   0  0  0  0  0  0  0  0  0  0  0  0
  -21.8662   -4.1318  -29.6920 C   0  0  0  0  0  0  0  0  0  0  0  0
  -17.1946   -5.9281  -25.5740 C   0  0  0  0  0  0  0  0  0  0  0  0
  -18.6813   -5.9503  -25.6240 C   0  0  0  0  0  0  0  0  0  0  0  0
  -18.4589   -3.7035  -26.5182 C   0  0  0  0  0  0  0  0  0  0  0  0
  -17.1135   -3.7100  -26.4626 C   0  0  0  0  0  0  0  0  0  0  0  0
  -19.2934   -4.8414  -26.0936 C   0  0  0  0  0  0  0  0  0  0  0  0
  -25.9461   -3.9798  -22.5743 C   0  0  0  0  0  0  0  0  0  0  0  0
  -23.3757   -3.0783  -25.0107 C   0  0  0  0  0  0  0  0  0  0  0  0
  -24.0979   -5.4892  -25.2493 C   0  0  0  0  0  0  0  0  0  0  0  0
  -23.7451   -3.1406  -23.5269 C   0  0  0  0  0  0  0  0  0  0  0  0
  -24.4077   -5.5129  -23.7542 C   0  0  0  0  0  0  0  0  0  0  0  0
  -21.5972   -4.9315  -25.1060 C   0  0  0  0  0  0  0  0  0  0  0  0
  -23.0050   -4.4593  -25.5957 C   0  0  0  0  0  0  0  0  0  0  0  0
  -26.4355   -3.4236  -19.7183 C   0  0  0  0  0  0  0  0  0  0  0  0
  -27.3515   -1.1929  -20.3390 C   0  0  0  0  0  0  0  0  0  0  0  0
  -24.4043   -2.4125  -30.7217 C   0  0  0  0  0  0  0  0  0  0  0  0
  -21.9326   -4.9629  -31.9193 C   0  0  0  0  0  0  0  0  0  0  0  0
  -26.2051   -2.5886  -22.0532 C   0  0  0  0  0  0  0  0  0  0  0  0
  -16.5043   -4.8467  -25.9815 N   0  0  0  0  0  0  0  0  0  0  0  0
  -16.3182   -6.8504  -25.1680 N   0  3  0  0  0  0  0  0  0  0  0  0
  -20.6391   -4.7153  -26.1970 N   0  0  0  0  0  0  0  0  0  0  0  0
  -24.7529   -4.1754  -23.2709 N   0  0  0  0  0  0  0  0  0  0  0  0
  -27.0291   -2.5867  -20.8292 N   0  3  0  0  0  0  0  0  0  0  0  0
  -26.7815   -4.8643  -22.3695 O   0  0  0  0  0  0  0  0  0  0  0  0
  -24.1261   -3.7750  -30.4064 O   0  0  0  0  0  0  0  0  0  0  0  0
  -21.4220   -4.0231  -30.9769 O   0  0  0  0  0  0  0  0  0  0  0  0
  -18.1858   -5.9103  -35.6568 H   0  0  0  0  0  0  0  0  0  0  0  0
  -19.8142   -7.6830  -35.0558 H   0  0  0  0  0  0  0  0  0  0  0  0
  -18.2867   -3.7005  -34.5325 H   0  0  0  0  0  0  0  0  0  0  0  0
  -21.5399   -7.2524  -33.3378 H   0  0  0  0  0  0  0  0  0  0  0  0
  -20.0083   -3.2601  -32.8134 H   0  0  0  0  0  0  0  0  0  0  0  0
  -24.7432   -4.0026  -27.8667 H   0  0  0  0  0  0  0  0  0  0  0  0
  -19.8884   -4.4592  -28.9117 H   0  0  0  0  0  0  0  0  0  0  0  0
  -14.4572   -4.3272  -26.1082 H   0  0  0  0  0  0  0  0  0  0  0  0
  -14.2300   -6.9950  -25.0256 H   0  0  0  0  0  0  0  0  0  0  0  0
  -19.2163   -6.8311  -25.2910 H   0  0  0  0  0  0  0  0  0  0  0  0
  -18.9678   -2.8201  -26.8934 H   0  0  0  0  0  0  0  0  0  0  0  0
  -16.4917   -2.8799  -26.7717 H   0  0  0  0  0  0  0  0  0  0  0  0
  -24.2314   -2.6598  -25.5584 H   0  0  0  0  0  0  0  0  0  0  0  0
  -22.5511   -2.3669  -25.1475 H   0  0  0  0  0  0  0  0  0  0  0  0
  -23.8023   -6.4936  -25.5782 H   0  0  0  0  0  0  0  0  0  0  0  0
  -25.0253   -5.2559  -25.7889 H   0  0  0  0  0  0  0  0  0  0  0  0
  -22.8701   -3.3894  -22.9165 H   0  0  0  0  0  0  0  0  0  0  0  0
  -24.0826   -2.1540  -23.2041 H   0  0  0  0  0  0  0  0  0  0  0  0
  -25.2216   -6.2189  -23.5609 H   0  0  0  0  0  0  0  0  0  0  0  0
  -23.5396   -5.8553  -23.1792 H   0  0  0  0  0  0  0  0  0  0  0  0
  -21.2741   -4.4018  -24.2028 H   0  0  0  0  0  0  0  0  0  0  0  0
  -21.6065   -6.0028  -24.8650 H   0  0  0  0  0  0  0  0  0  0  0  0
  -25.4681   -2.9918  -19.4554 H   0  0  0  0  0  0  0  0  0  0  0  0
  -27.1233   -3.3910  -18.8713 H   0  0  0  0  0  0  0  0  0  0  0  0
  -26.3215   -4.4429  -20.0924 H   0  0  0  0  0  0  0  0  0  0  0  0
  -26.4096   -0.6991  -20.0933 H   0  0  0  0  0  0  0  0  0  0  0  0
  -27.8720   -0.6682  -21.1425 H   0  0  0  0  0  0  0  0  0  0  0  0
  -27.9867   -1.2878  -19.4563 H   0  0  0  0  0  0  0  0  0  0  0  0
  -25.1325   -2.3674  -31.5353 H   0  0  0  0  0  0  0  0  0  0  0  0
  -23.4799   -1.9100  -31.0176 H   0  0  0  0  0  0  0  0  0  0  0  0
  -24.8176   -1.9203  -29.8382 H   0  0  0  0  0  0  0  0  0  0  0  0
  -22.8434   -4.5561  -32.3717 H   0  0  0  0  0  0  0  0  0  0  0  0
  -22.2007   -5.8870  -31.3958 H   0  0  0  0  0  0  0  0  0  0  0  0
  -26.7393   -2.0153  -22.8048 H   0  0  0  0  0  0  0  0  0  0  0  0
  -25.2600   -2.1112  -21.8141 H   0  0  0  0  0  0  0  0  0  0  0  0
  -16.5563   -7.7703  -24.8074 H   0  0  0  0  0  0  0  0  0  0  0  0
  -27.9426   -3.0239  -21.0522 H   0  0  0  0  0  0  0  0  0  0  0  0
  1  2  2  0  0  0  0
  1  3  1  0  0  0  0
  2  4  1  0  0  0  0
  3  5  2  0  0  0  0
  4 11  2  0  0  0  0
  5 11  1  0  0  0  0
  6 10  1  0  0  0  0
  6 13  2  0  0  0  0
  7 12  1  0  0  0  0
  7 14  2  0  0  0  0
  8  9  2  0  0  0  0
  8 32  1  0  0  0  0
  9 33  1  0  0  0  0
 10 12  2  0  0  0  0
 10 26  1  0  0  0  0
 11 30  1  0  0  0  0
 12 34  1  0  0  0  0
 13 14  1  0  0  0  0
 13 38  1  0  0  0  0
 14 39  1  0  0  0  0
 15 16  1  0  0  0  0
 15 32  1  0  0  0  0
 15 33  2  0  0  0  0
 16 19  2  0  0  0  0
 17 18  2  0  0  0  0
 17 19  1  0  0  0  0
 18 32  1  0  0  0  0
 19 34  1  0  0  0  0
 20 31  1  0  0  0  0
 20 35  1  0  0  0  0
 20 37  2  0  0  0  0
 21 23  1  0  0  0  0
 21 26  1  0  0  0  0
 22 24  1  0  0  0  0
 22 26  1  0  0  0  0
 23 35  1  0  0  0  0
 24 35  1  0  0  0  0
 25 26  1  0  0  0  0
 25 34  1  0  0  0  0
 27 36  1  0  0  0  0
 28 36  1  0  0  0  0
 29 38  1  0  0  0  0
 30 39  1  0  0  0  0
 31 36  1  0  0  0  0
  1 40  1  0  0  0  0
  2 41  1  0  0  0  0
  3 42  1  0  0  0  0
  4 43  1  0  0  0  0
  5 44  1  0  0  0  0
  6 45  1  0  0  0  0
  7 46  1  0  0  0  0
  8 47  1  0  0  0  0
  9 48  1  0  0  0  0
 16 49  1  0  0  0  0
 17 50  1  0  0  0  0
 18 51  1  0  0  0  0
 21 52  1  0  0  0  0
 21 53  1  0  0  0  0
 22 54  1  0  0  0  0
 22 55  1  0  0  0  0
 23 56  1  0  0  0  0
 23 57  1  0  0  0  0
 24 58  1  0  0  0  0
 24 59  1  0  0  0  0
 25 60  1  0  0  0  0
 25 61  1  0  0  0  0
 27 62  1  0  0  0  0
 27 63  1  0  0  0  0
 27 64  1  0  0  0  0
 28 65  1  0  0  0  0
 28 66  1  0  0  0  0
 28 67  1  0  0  0  0
 29 68  1  0  0  0  0
 29 69  1  0  0  0  0
 29 70  1  0  0  0  0
 30 71  1  0  0  0  0
 30 72  1  0  0  0  0
 31 73  1  0  0  0  0
 31 74  1  0  0  0  0
 33 75  1  0  0  0  0
 36 76  1  0  0  0  0
M  CHG  2  33   1  36   1
M  END
> <SMILES>
COc1cc2c(cc1OCc1ccccc1)N(CC12CCN(CC1)C(=O)CN(C)C)c1ccn2ccnc2c1

> <FORMATTED_ID>
H3D-014005

> <MOLFORMULA>
C31H35N5O3

> <Exact Mass>
525.27

> <XLogP>
5.8

> <TPSA_NOPS>
62.5

> <s_m_source_file>
ligprep_h3d.sdf

> <i_m_source_file_index>
5188

> <i_lp_mmshare_version>
55123

> <i_f3d_flags>
0

> <s_epik_input>
W2NIXTFbY0hdW2NIXVtjSF1bY0hdYzFbQ0gyXU9jKGMoW2NIXTIpT1tDSDNdKVtjSF1jKE4oW0NIMl0zKWMoW2NIXVtjSF00KVtjSF1jKG40NSluW2NIXVtjSF01KWMyQzM2W0NIMl1bQ0gyXU4oW0NIMl1bQ0gyXTYpQyg9TylbQ0gyXU4oW0NIM10pW0NIM10=

> <s_epik_cmdline>
J2VwaWtfcHl0aG9uJywgJy1waHQnLCAnMC41JywgJy1waCcsICc3LjUnLCAnLXRuJywgJzgnLCAnLW1hJywgJzUwMCcsICctaW1hZScsICc8aW5maWxlLm1hZT4nLCAnLW9tYWUnLCAnPG91dGZpbGUubWFlPic=

> <r_lp_tautomer_probability>
1

> <r_epik_Ionization_Penalty>
0.443819

> <r_epik_Ionization_Penalty_Charging>
0.106153

> <r_epik_Ionization_Penalty_Neutral>
0.337666

> <r_epik_State_Penalty>
0.427847

> <r_epik_Charging_Adjusted_Penalty>
0.533999

> <i_epik_Tot_Q>
2

> <i_epik_Tot_abs_Q>
2

> <s_lp_Force_Field>
S-OPLS

> <r_lp_Energy>
79.1835

> <b_lp_Chiralities_Consistent>
1

> <s_lp_Variant>
ligprep_h3d.sdf:5188-1

> <ROCS_ShapeQuery>
_7L13

> <ROCS_TanimotoCombo>
0.749 

> <ROCS_ShapeTanimoto>
0.646 

> <ROCS_ColorTanimoto>
0.102 

> <ROCS_RefTversky>
0.816 

> <ROCS_RefColorTversky>
0.223 

> <ROCS_RefTverskyCombo>
1.038 

> <ROCS_FitTversky>
0.757 

> <ROCS_FitColorTversky>
0.160 

> <ROCS_FitTverskyCombo>
0.916 

> <ROCS_ColorScore>
-2.048

> <ROCS_Overlap>
1360.221

> <ROCS_Rank>
78                  

$$$$
ligprep_h3d.sdf:5063_280
  -OEChem-08212117123D

 68 72  0     1  0  0  0  0  0999 V2000
  -20.5227   -3.8448  -32.5168 C   0  0  0  0  0  0  0  0  0  0  0  0
  -25.3134   -4.3007  -25.0826 C   0  0  0  0  0  0  0  0  0  0  0  0
  -23.5831   -5.3269  -23.7447 C   0  0  0  0  0  0  0  0  0  0  0  0
  -19.2996   -4.4498  -32.8064 C   0  0  0  0  0  0  0  0  0  0  0  0
  -25.9657   -3.8865  -23.9214 C   0  0  0  0  0  0  0  0  0  0  0  0
  -24.2354   -4.9126  -22.5834 C   0  0  0  0  0  0  0  0  0  0  0  0
  -21.6841   -5.7315  -33.4805 C   0  0  0  0  0  0  0  0  0  0  0  0
  -17.7725   -5.9486  -26.7026 C   0  0  0  0  0  0  0  0  0  0  0  0
  -18.3197   -4.2094  -25.1175 C   0  0  0  0  0  0  0  0  0  0  0  0
  -16.3888   -5.6143  -24.7505 C   0  0  0  0  0  0  0  0  0  0  0  0
  -21.7149   -4.4857  -32.8539 C   0  0  0  0  0  0  0  0  0  0  0  0
  -20.4610   -6.3365  -33.7701 C   0  0  0  0  0  0  0  0  0  0  0  0
  -18.5985   -4.9006  -26.2965 C   0  0  0  0  0  0  0  0  0  0  0  0
  -24.1222   -5.0210  -24.9943 C   0  0  0  0  0  0  0  0  0  0  0  0
  -19.2688   -5.6956  -33.4330 C   0  0  0  0  0  0  0  0  0  0  0  0
  -25.4267   -4.1924  -22.6718 C   0  0  0  0  0  0  0  0  0  0  0  0
  -16.6676   -6.3056  -25.9295 C   0  0  0  0  0  0  0  0  0  0  0  0
  -17.2148   -4.5663  -24.3444 C   0  0  0  0  0  0  0  0  0  0  0  0
  -22.9340   -2.9589  -31.3070 C   0  0  0  0  0  0  0  0  0  0  0  0
  -22.8351   -5.0081  -29.8143 C   0  0  0  0  0  0  0  0  0  0  0  0
  -19.9456   -4.6192  -28.4745 C   0  0  0  0  0  0  0  0  0  0  0  0
  -20.8250   -3.7033  -26.7955 C   0  0  0  0  0  0  0  0  0  0  0  0
  -21.7892   -2.9301  -29.1100 C   0  0  0  0  0  0  0  0  0  0  0  0
  -22.4703   -5.1496  -28.3375 C   0  0  1  0  0  0  0  0  0  0  0  0
  -21.3766   -4.0783  -28.1934 C   0  0  0  0  0  0  0  0  0  0  0  0
  -23.6513   -2.9858  -33.6718 C   0  0  0  0  0  0  0  0  0  0  0  0
  -23.6755   -4.8620  -27.4440 C   0  0  0  0  0  0  0  0  0  0  0  0
  -23.0510   -3.8248  -32.5359 C   0  0  1  0  0  0  0  0  0  0  0  0
  -20.4465   -7.6709  -34.4400 C   0  0  0  0  0  0  0  0  0  0  0  0
  -19.7088   -4.5412  -27.0736 N   0  0  0  0  0  0  0  0  0  0  0  0
  -22.5545   -3.6124  -30.1454 N   0  0  0  0  0  0  0  0  0  0  0  0
  -23.4690   -5.4358  -26.1572 N   0  0  0  0  0  0  0  0  0  0  0  0
  -23.1746   -1.7521  -31.3714 O   0  0  0  0  0  0  0  0  0  0  0  0
  -18.0652   -6.2712  -33.7099 O   0  0  0  0  0  0  0  0  0  0  0  0
  -23.9949   -4.8716  -32.2673 O   0  0  0  0  0  0  0  0  0  0  0  0
  -26.0530   -3.7946  -21.5566 F   0  0  0  0  0  0  0  0  0  0  0  0
  -15.8736   -7.3108  -26.3207 F   0  0  0  0  0  0  0  0  0  0  0  0
  -16.9460   -3.9012  -23.2133 F   0  0  0  0  0  0  0  0  0  0  0  0
  -21.6925   -8.1636  -34.7020 F   0  0  0  0  0  0  0  0  0  0  0  0
  -19.8023   -7.6693  -35.6437 F   0  0  0  0  0  0  0  0  0  0  0  0
  -19.8236   -8.6258  -33.6909 F   0  0  0  0  0  0  0  0  0  0  0  0
  -20.5376   -2.8744  -32.0278 H   0  0  0  0  0  0  0  0  0  0  0  0
  -25.7422   -4.0566  -26.0512 H   0  0  0  0  0  0  0  0  0  0  0  0
  -22.6555   -5.8879  -23.6643 H   0  0  0  0  0  0  0  0  0  0  0  0
  -18.3749   -3.9454  -32.5391 H   0  0  0  0  0  0  0  0  0  0  0  0
  -26.8930   -3.3255  -23.9897 H   0  0  0  0  0  0  0  0  0  0  0  0
  -23.8163   -5.1508  -21.6103 H   0  0  0  0  0  0  0  0  0  0  0  0
  -22.6141   -6.2305  -33.7425 H   0  0  0  0  0  0  0  0  0  0  0  0
  -17.9800   -6.4932  -27.6198 H   0  0  0  0  0  0  0  0  0  0  0  0
  -18.9563   -3.3906  -24.7924 H   0  0  0  0  0  0  0  0  0  0  0  0
  -15.5276   -5.8918  -24.1498 H   0  0  0  0  0  0  0  0  0  0  0  0
  -22.1755   -5.6190  -30.4401 H   0  0  0  0  0  0  0  0  0  0  0  0
  -23.8713   -5.2668  -30.0489 H   0  0  0  0  0  0  0  0  0  0  0  0
  -19.8908   -5.6488  -28.8476 H   0  0  0  0  0  0  0  0  0  0  0  0
  -19.2793   -3.9792  -29.0606 H   0  0  0  0  0  0  0  0  0  0  0  0
  -20.5501   -2.6552  -26.6461 H   0  0  0  0  0  0  0  0  0  0  0  0
  -21.4117   -4.0646  -25.9433 H   0  0  0  0  0  0  0  0  0  0  0  0
  -22.4606   -2.2243  -28.6059 H   0  0  0  0  0  0  0  0  0  0  0  0
  -20.9485   -2.3775  -29.5443 H   0  0  0  0  0  0  0  0  0  0  0  0
  -22.0990   -6.1567  -28.1212 H   0  0  0  0  0  0  0  0  0  0  0  0
  -24.6083   -2.5448  -33.3677 H   0  0  0  0  0  0  0  0  0  0  0  0
  -22.9966   -2.1435  -33.9291 H   0  0  0  0  0  0  0  0  0  0  0  0
  -23.8126   -3.5693  -34.5852 H   0  0  0  0  0  0  0  0  0  0  0  0
  -23.7716   -3.7801  -27.3710 H   0  0  0  0  0  0  0  0  0  0  0  0
  -24.5464   -5.3028  -27.9258 H   0  0  0  0  0  0  0  0  0  0  0  0
  -22.8022   -6.2058  -26.0574 H   0  0  0  0  0  0  0  0  0  0  0  0
  -17.3428   -5.6962  -33.4128 H   0  0  0  0  0  0  0  0  0  0  0  0
  -24.8324   -4.4308  -32.0687 H   0  0  0  0  0  0  0  0  0  0  0  0
  1  4  1  0  0  0  0
  1 11  2  0  0  0  0
  2  5  1  0  0  0  0
  2 14  2  0  0  0  0
  3  6  2  0  0  0  0
  3 14  1  0  0  0  0
  4 15  2  0  0  0  0
  5 16  2  0  0  0  0
  6 16  1  0  0  0  0
  7 11  1  0  0  0  0
  7 12  2  0  0  0  0
  8 13  2  0  0  0  0
  8 17  1  0  0  0  0
  9 13  1  0  0  0  0
  9 18  2  0  0  0  0
 10 17  2  0  0  0  0
 10 18  1  0  0  0  0
 11 28  1  0  0  0  0
 12 15  1  0  0  0  0
 12 29  1  0  0  0  0
 13 30  1  0  0  0  0
 14 32  1  0  0  0  0
 15 34  1  0  0  0  0
 16 36  1  0  0  0  0
 17 37  1  0  0  0  0
 18 38  1  0  0  0  0
 19 28  1  0  0  0  0
 19 31  1  0  0  0  0
 19 33  2  0  0  0  0
 20 24  1  0  0  0  0
 20 31  1  0  0  0  0
 21 25  1  0  0  0  0
 21 30  1  0  0  0  0
 22 25  1  0  0  0  0
 22 30  1  0  0  0  0
 23 25  1  0  0  0  0
 23 31  1  0  0  0  0
 24 25  1  0  0  0  0
 24 27  1  0  0  0  0
 26 28  1  0  0  0  0
 27 32  1  0  0  0  0
 28 35  1  0  0  0  0
 29 39  1  0  0  0  0
 29 40  1  0  0  0  0
 29 41  1  0  0  0  0
  1 42  1  0  0  0  0
  2 43  1  0  0  0  0
  3 44  1  0  0  0  0
  4 45  1  0  0  0  0
  5 46  1  0  0  0  0
  6 47  1  0  0  0  0
  7 48  1  0  0  0  0
  8 49  1  0  0  0  0
  9 50  1  0  0  0  0
 10 51  1  0  0  0  0
 20 52  1  0  0  0  0
 20 53  1  0  0  0  0
 21 54  1  0  0  0  0
 21 55  1  0  0  0  0
 22 56  1  0  0  0  0
 22 57  1  0  0  0  0
 23 58  1  0  0  0  0
 23 59  1  0  0  0  0
 24 60  1  0  0  0  0
 26 61  1  0  0  0  0
 26 62  1  0  0  0  0
 26 63  1  0  0  0  0
 27 64  1  0  0  0  0
 27 65  1  0  0  0  0
 32 66  1  0  0  0  0
 34 67  1  0  0  0  0
 35 68  1  0  0  0  0
M  END
> <SMILES>
CC(O)(C(=O)N1CC(CNc2ccc(cc2)F)C2(C1)CN(C2)c1cc(cc(c1)F)F)c1ccc(c(c1)C(F)(F)F)O

> <FORMATTED_ID>
H3D-009437

> <MOLFORMULA>
C29H27F6N3O3

> <Exact Mass>
579.2

> <XLogP>
4.69

> <TPSA_NOPS>
76

> <s_m_source_file>
ligprep_h3d.sdf

> <i_m_source_file_index>
5063

> <i_lp_mmshare_version>
55123

> <i_f3d_flags>
0

> <s_epik_input>
RkMoRikoRiljKFtjSF0xKWMoW09IXSlbY0hdW2NIXWMxW0NAQF0oW0NIM10pKFtPSF0pQyg9TylOKFtDSDJdMilbQ0gyXVtDQEhdKFtDSDJdW05IXWMzW2NIXVtjSF1jKEYpW2NIXVtjSF0zKUMyNFtDSDJdTihbQ0gyXTQpYzVbY0hdYyhGKVtjSF1jKEYpW2NIXTU=

> <s_epik_cmdline>
J2VwaWtfcHl0aG9uJywgJy1waHQnLCAnMC41JywgJy1waCcsICc3LjUnLCAnLXRuJywgJzgnLCAnLW1hJywgJzUwMCcsICctaW1hZScsICc8aW5maWxlLm1hZT4nLCAnLW9tYWUnLCAnPG91dGZpbGUubWFlPic=

> <r_lp_tautomer_probability>
1

> <r_epik_Ionization_Penalty>
0.0589147

> <r_epik_Ionization_Penalty_Charging>
0

> <r_epik_Ionization_Penalty_Neutral>
0.0589147

> <r_epik_State_Penalty>
0.0481927

> <r_epik_Charging_Adjusted_Penalty>
0.0481927

> <i_epik_Tot_Q>
0

> <i_epik_Tot_abs_Q>
0

> <s_lp_Force_Field>
S-OPLS

> <r_lp_Energy>
48.1441

> <b_lp_Chiralities_Consistent>
1

> <s_lp_Variant>
ligprep_h3d.sdf:5063-1

> <ROCS_ShapeQuery>
_7L13

> <ROCS_TanimotoCombo>
0.686 

> <ROCS_ShapeTanimoto>
0.622 

> <ROCS_ColorTanimoto>
0.064 

> <ROCS_RefTversky>
0.816 

> <ROCS_RefColorTversky>
0.132 

> <ROCS_RefTverskyCombo>
0.947 

> <ROCS_FitTversky>
0.724 

> <ROCS_FitColorTversky>
0.110 

> <ROCS_FitTverskyCombo>
0.834 

> <ROCS_ColorScore>
-1.198

> <ROCS_Overlap>
1363.862

> <ROCS_Rank>
79                  

$$$$
ligprep_h3d.sdf:874_1170
  -OEChem-08212117123D

 59 64  0     1  0  0  0  0  0999 V2000
  -20.8920   -4.9956  -29.5415 C   0  0  0  0  0  0  0  0  0  0  0  0
  -21.7213   -4.2732  -30.4021 C   0  0  0  0  0  0  0  0  0  0  0  0
  -21.0244   -4.8002  -28.1457 C   0  0  0  0  0  0  0  0  0  0  0  0
  -21.9914   -3.9309  -27.5875 C   0  0  0  0  0  0  0  0  0  0  0  0
  -22.6379   -3.4033  -29.8535 C   0  0  0  0  0  0  0  0  0  0  0  0
  -22.8054   -3.1989  -28.4837 C   0  0  0  0  0  0  0  0  0  0  0  0
  -21.9242   -4.1436  -31.7886 C   0  0  0  0  0  0  0  0  0  0  0  0
  -18.9276   -3.5819  -26.2393 C   0  0  0  0  0  0  0  0  0  0  0  0
  -19.3434   -7.2873  -35.6404 C   0  0  0  0  0  0  0  0  0  0  0  0
  -19.0691   -5.8439  -25.0712 C   0  0  0  0  0  0  0  0  0  0  0  0
  -16.9727   -4.7732  -25.8653 C   0  0  0  0  0  0  0  0  0  0  0  0
  -20.1054   -5.5789  -27.2430 C   0  0  0  0  0  0  0  0  0  0  0  0
  -19.7745   -8.6297  -35.1004 C   0  0  0  0  0  0  0  0  0  0  0  0
  -20.2795   -8.2919  -33.7010 C   0  0  0  0  0  0  0  0  0  0  0  0
  -23.1527   -2.9398  -25.6248 C   0  0  0  0  0  0  0  0  0  0  0  0
  -21.1638   -4.4485  -25.2568 C   0  0  2  0  0  0  0  0  0  0  0  0
  -20.8133   -6.8733  -33.8467 C   0  0  1  0  0  0  0  0  0  0  0  0
  -23.4918   -3.3271  -24.1824 C   0  0  1  0  0  0  0  0  0  0  0  0
  -21.0876   -3.5355  -23.9979 C   0  0  2  0  0  0  0  0  0  0  0  0
  -19.8006   -4.8200  -25.9278 C   0  0  2  0  0  0  0  0  0  0  0  0
  -24.3695   -4.5745  -24.1000 C   0  0  0  0  0  0  0  0  0  0  0  0
  -20.0888   -3.9473  -22.9237 C   0  0  0  0  0  0  0  0  0  0  0  0
  -20.7818   -6.0852  -32.5506 C   0  0  0  0  0  0  0  0  0  0  0  0
  -22.8866   -3.2633  -32.0800 N   0  0  0  0  0  0  0  0  0  0  0  0
  -17.6402   -3.8115  -26.5042 N   0  5  0  0  0  0  0  0  0  0  0  0
  -17.6962   -5.7075  -25.1264 N   0  0  0  0  0  0  0  0  0  0  0  0
  -19.9533   -6.3123  -34.8575 N   0  0  0  0  0  0  0  0  0  0  0  0
  -22.1137   -3.8020  -26.2018 N   0  0  3  0  0  0  0  0  0  0  0  0
  -19.4363   -2.4663  -26.3467 O   0  0  0  0  0  0  0  0  0  0  0  0
  -18.6250   -7.1137  -36.6125 O   0  0  0  0  0  0  0  0  0  0  0  0
  -19.6274   -6.7490  -24.4551 O   0  0  0  0  0  0  0  0  0  0  0  0
  -15.7446   -4.8828  -25.9155 O   0  0  0  0  0  0  0  0  0  0  0  0
  -23.3357   -2.7942  -30.8511 O   0  0  0  0  0  0  0  0  0  0  0  0
  -22.3600   -3.5135  -23.3375 O   0  0  0  0  0  0  0  0  0  0  0  0
  -21.2922   -4.7645  -32.7935 O   0  0  0  0  0  0  0  0  0  0  0  0
  -23.6587   -2.2457  -28.0905 F   0  0  0  0  0  0  0  0  0  0  0  0
  -20.1531   -5.6860  -29.9378 H   0  0  0  0  0  0  0  0  0  0  0  0
  -20.5854   -6.5445  -27.0335 H   0  0  0  0  0  0  0  0  0  0  0  0
  -19.1707   -5.8053  -27.7729 H   0  0  0  0  0  0  0  0  0  0  0  0
  -20.5601   -9.0675  -35.7210 H   0  0  0  0  0  0  0  0  0  0  0  0
  -18.9059   -9.2945  -35.0685 H   0  0  0  0  0  0  0  0  0  0  0  0
  -21.0982   -8.9701  -33.4368 H   0  0  0  0  0  0  0  0  0  0  0  0
  -19.4972   -8.3920  -32.9458 H   0  0  0  0  0  0  0  0  0  0  0  0
  -24.0572   -3.0452  -26.2586 H   0  0  0  0  0  0  0  0  0  0  0  0
  -22.9342   -1.8605  -25.6368 H   0  0  0  0  0  0  0  0  0  0  0  0
  -21.6591   -5.3835  -24.9491 H   0  0  0  0  0  0  0  0  0  0  0  0
  -21.8471   -6.8873  -34.2422 H   0  0  0  0  0  0  0  0  0  0  0  0
  -24.1161   -2.4851  -23.7218 H   0  0  0  0  0  0  0  0  0  0  0  0
  -20.8468   -2.4945  -24.2791 H   0  0  0  0  0  0  0  0  0  0  0  0
  -23.8424   -5.4301  -24.5225 H   0  0  0  0  0  0  0  0  0  0  0  0
  -25.2932   -4.4180  -24.6573 H   0  0  0  0  0  0  0  0  0  0  0  0
  -24.6158   -4.7892  -23.0600 H   0  0  0  0  0  0  0  0  0  0  0  0
  -20.2821   -4.9727  -22.6081 H   0  0  0  0  0  0  0  0  0  0  0  0
  -20.1777   -3.2887  -22.0597 H   0  0  0  0  0  0  0  0  0  0  0  0
  -19.0732   -3.8830  -23.3146 H   0  0  0  0  0  0  0  0  0  0  0  0
  -19.7571   -6.0037  -32.1758 H   0  0  0  0  0  0  0  0  0  0  0  0
  -21.4036   -6.5693  -31.7917 H   0  0  0  0  0  0  0  0  0  0  0  0
  -17.1543   -6.3594  -24.5674 H   0  0  0  0  0  0  0  0  0  0  0  0
  -19.7847   -5.3205  -34.9693 H   0  0  0  0  0  0  0  0  0  0  0  0
  1  2  2  0  0  0  0
  1  3  1  0  0  0  0
  2  5  1  0  0  0  0
  2  7  1  0  0  0  0
  3  4  2  0  0  0  0
  3 12  1  0  0  0  0
  4  6  1  0  0  0  0
  4 28  1  0  0  0  0
  5  6  2  0  0  0  0
  5 33  1  0  0  0  0
  6 36  1  0  0  0  0
  7 24  2  0  0  0  0
  7 35  1  0  0  0  0
  8 20  1  0  0  0  0
  8 25  1  0  0  0  0
  8 29  2  0  0  0  0
  9 13  1  0  0  0  0
  9 27  1  0  0  0  0
  9 30  2  0  0  0  0
 10 20  1  0  0  0  0
 10 26  1  0  0  0  0
 10 31  2  0  0  0  0
 11 25  1  0  0  0  0
 11 26  1  0  0  0  0
 11 32  2  0  0  0  0
 12 20  1  0  0  0  0
 13 14  1  0  0  0  0
 14 17  1  0  0  0  0
 15 18  1  0  0  0  0
 15 28  1  0  0  0  0
 16 19  1  0  0  0  0
 16 20  1  0  0  0  0
 16 28  1  0  0  0  0
 17 23  1  0  0  0  0
 17 27  1  0  0  0  0
 18 21  1  0  0  0  0
 18 34  1  0  0  0  0
 19 22  1  0  0  0  0
 19 34  1  0  0  0  0
 23 35  1  0  0  0  0
 24 33  1  0  0  0  0
  1 37  1  0  0  0  0
 12 38  1  0  0  0  0
 12 39  1  0  0  0  0
 13 40  1  0  0  0  0
 13 41  1  0  0  0  0
 14 42  1  0  0  0  0
 14 43  1  0  0  0  0
 15 44  1  0  0  0  0
 15 45  1  0  0  0  0
 16 46  1  0  0  0  0
 17 47  1  0  0  0  0
 18 48  1  0  0  0  0
 19 49  1  0  0  0  0
 21 50  1  0  0  0  0
 21 51  1  0  0  0  0
 21 52  1  0  0  0  0
 22 53  1  0  0  0  0
 22 54  1  0  0  0  0
 22 55  1  0  0  0  0
 23 56  1  0  0  0  0
 23 57  1  0  0  0  0
 26 58  1  0  0  0  0
 27 59  1  0  0  0  0
M  CHG  1  25  -1
M  END
> <SMILES>
C[C@@H]1CN2[C@H]([C@H](C)O1)C1(Cc3cc4c(noc4c(c32)F)OC[C@@H]2CCC(=O)N2)C(=O)NC(=O)NC1=O

> <FORMATTED_ID>
H3D-005722

> <MOLFORMULA>
C23H24FN5O7

> <Exact Mass>
501.17

> <XLogP>
0.26

> <TPSA_NOPS>
152.4

> <s_m_source_file>
ligprep_h3d.sdf

> <i_m_source_file_index>
874

> <i_lp_mmshare_version>
55123

> <i_f3d_flags>
0

> <s_epik_input>
Tz1DMVtOSF1DKD1PKVtOSF1DKD1PKUMxMltDQEBIXTNOKFtDSDJdW0NAQEhdKFtDSDNdKU9bQ0BIXTNbQ0gzXSljNGMoW0NIMl0yKVtjSF1jNWMoYzRGKW9uYzVPW0NIMl1bQ0BASF02W0NIMl1bQ0gyXUMoPU8pW05IXTY=

> <s_epik_cmdline>
J2VwaWtfcHl0aG9uJywgJy1waHQnLCAnMC41JywgJy1waCcsICc3LjUnLCAnLXRuJywgJzgnLCAnLW1hJywgJzUwMCcsICctaW1hZScsICc8aW5maWxlLm1hZT4nLCAnLW9tYWUnLCAnPG91dGZpbGUubWFlPic=

> <r_lp_tautomer_probability>
1

> <r_epik_Ionization_Penalty>
0.455391

> <r_epik_Ionization_Penalty_Charging>
0.455373

> <r_epik_Ionization_Penalty_Neutral>
1.78231e-05

> <r_epik_State_Penalty>
0.458483

> <r_epik_Charging_Adjusted_Penalty>
0.913857

> <i_epik_Tot_Q>
-1

> <i_epik_Tot_abs_Q>
1

> <s_lp_Force_Field>
S-OPLS

> <r_lp_Energy>
44.3856

> <b_lp_Chiralities_Consistent>
1

> <s_lp_Variant>
ligprep_h3d.sdf:874-2

> <ROCS_ShapeQuery>
_7L13

> <ROCS_TanimotoCombo>
0.791 

> <ROCS_ShapeTanimoto>
0.674 

> <ROCS_ColorTanimoto>
0.117 

> <ROCS_RefTversky>
0.816 

> <ROCS_RefColorTversky>
0.290 

> <ROCS_RefTverskyCombo>
1.105 

> <ROCS_FitTversky>
0.795 

> <ROCS_FitColorTversky>
0.164 

> <ROCS_FitTverskyCombo>
0.959 

> <ROCS_ColorScore>
-2.725

> <ROCS_Overlap>
1356.185

> <ROCS_Rank>
80                  

$$$$
ligprep_h3d.sdf:2370_759
  -OEChem-08212117123D

102106  0     1  0  0  0  0  0999 V2000
  -24.7919   -5.3722  -22.4265 C   0  0  0  0  0  0  0  0  0  0  0  0
  -23.6365   -4.6117  -22.6056 C   0  0  0  0  0  0  0  0  0  0  0  0
  -25.7864   -5.3708  -23.4046 C   0  0  0  0  0  0  0  0  0  0  0  0
  -23.4755   -3.8496  -23.7627 C   0  0  0  0  0  0  0  0  0  0  0  0
  -25.6255   -4.6087  -24.5617 C   0  0  0  0  0  0  0  0  0  0  0  0
  -24.4701   -3.8481  -24.7408 C   0  0  0  0  0  0  0  0  0  0  0  0
  -22.1909   -3.9687  -30.1496 C   0  0  0  0  0  0  0  0  0  0  0  0
  -19.4299   -5.3351  -26.2224 C   0  0  0  0  0  0  0  0  0  0  0  0
  -21.9918   -4.0284  -28.8277 C   0  0  0  0  0  0  0  0  0  0  0  0
  -18.1165   -5.1351  -26.0023 C   0  0  0  0  0  0  0  0  0  0  0  0
  -22.7448   -3.1005  -27.9277 C   0  0  0  0  0  0  0  0  0  0  0  0
  -23.7921   -0.7269  -30.5840 C   0  0  0  0  0  0  0  0  0  0  0  0
  -19.6716   -4.0900  -35.9240 C   0  0  0  0  0  0  0  0  0  0  0  0
  -18.6649   -8.4083  -36.0668 C   0  0  0  0  0  0  0  0  0  0  0  0
  -20.7758   -3.6867  -34.9313 C   0  0  0  0  0  0  0  0  0  0  0  0
  -19.3109   -7.7692  -34.8249 C   0  0  0  0  0  0  0  0  0  0  0  0
  -20.2211   -5.5675  -30.9198 C   0  0  0  0  0  0  0  0  0  0  0  0
  -22.7885   -3.1742  -32.3533 C   0  0  0  0  0  0  0  0  0  0  0  0
  -21.5260   -4.8257  -31.1990 C   0  0  2  0  0  0  0  0  0  0  0  0
  -23.0863   -2.9668  -30.8517 C   0  0  2  0  0  0  0  0  0  0  0  0
  -19.5720   -5.6063  -36.0590 C   0  0  1  0  0  0  0  0  0  0  0  0
  -19.7283   -5.5247  -33.4543 C   0  0  1  0  0  0  0  0  0  0  0  0
  -18.8030   -6.1515  -37.2931 C   0  0  1  0  0  0  0  0  0  0  0  0
  -19.0007   -7.6877  -37.3748 C   0  0  2  0  0  0  0  0  0  0  0  0
  -19.8009   -6.3861  -32.1576 C   0  0  2  0  0  0  0  0  0  0  0  0
  -19.0644   -6.2421  -34.7188 C   0  0  1  0  0  0  0  0  0  0  0  0
  -21.0332   -4.6687  -33.7343 C   0  0  1  0  0  0  0  0  0  0  0  0
  -21.3893   -3.8485  -32.4006 C   0  0  1  0  0  0  0  0  0  0  0  0
  -17.2831   -6.2090  -25.3542 C   0  0  0  0  0  0  0  0  0  0  0  0
  -17.3541   -3.8870  -26.3465 C   0  0  0  0  0  0  0  0  0  0  0  0
  -23.3162    0.6309  -30.1645 C   0  0  0  0  0  0  0  0  0  0  0  0
  -19.2369   -5.4853  -38.6054 C   0  0  0  0  0  0  0  0  0  0  0  0
  -17.5226   -6.0360  -34.5349 C   0  0  0  0  0  0  0  0  0  0  0  0
  -22.2291   -5.5882  -34.1313 C   0  0  0  0  0  0  0  0  0  0  0  0
  -20.3246   -2.7333  -32.0965 C   0  0  0  0  0  0  0  0  0  0  0  0
  -25.6281   -2.5385  -26.5673 C   0  0  0  0  0  0  0  0  0  0  0  0
  -20.4191   -4.3973  -26.8583 C   0  0  0  0  0  0  0  0  0  0  0  0
  -20.9684   -4.9337  -28.1874 C   0  0  0  0  0  0  0  0  0  0  0  0
  -24.2962   -3.0213  -25.9965 C   0  0  2  0  0  0  0  0  0  0  0  0
  -23.5448   -3.7412  -26.9985 N   0  0  0  0  0  0  0  0  0  0  0  0
  -22.5831   -1.8854  -28.0095 O   0  0  0  0  0  0  0  0  0  0  0  0
  -24.9319   -0.9681  -30.9580 O   0  0  0  0  0  0  0  0  0  0  0  0
  -20.3566   -8.0088  -37.6953 O   0  0  0  0  0  0  0  0  0  0  0  0
  -20.7156   -7.4668  -32.3171 O   0  0  0  0  0  0  0  0  0  0  0  0
  -22.7707   -1.6322  -30.4832 O   0  0  0  0  0  0  0  0  0  0  0  0
  -24.9164   -5.9666  -21.5260 H   0  0  0  0  0  0  0  0  0  0  0  0
  -22.8615   -4.6136  -21.8447 H   0  0  0  0  0  0  0  0  0  0  0  0
  -26.6857   -5.9637  -23.2659 H   0  0  0  0  0  0  0  0  0  0  0  0
  -22.5720   -3.2599  -23.8937 H   0  0  0  0  0  0  0  0  0  0  0  0
  -26.4057   -4.6136  -25.3183 H   0  0  0  0  0  0  0  0  0  0  0  0
  -19.8577   -6.2905  -25.9197 H   0  0  0  0  0  0  0  0  0  0  0  0
  -19.9059   -3.6125  -36.8807 H   0  0  0  0  0  0  0  0  0  0  0  0
  -18.7132   -3.6668  -35.6041 H   0  0  0  0  0  0  0  0  0  0  0  0
  -17.5774   -8.4454  -35.9409 H   0  0  0  0  0  0  0  0  0  0  0  0
  -19.0022   -9.4510  -36.1248 H   0  0  0  0  0  0  0  0  0  0  0  0
  -20.5275   -2.6785  -34.5932 H   0  0  0  0  0  0  0  0  0  0  0  0
  -21.7087   -3.5533  -35.4955 H   0  0  0  0  0  0  0  0  0  0  0  0
  -20.3874   -7.9723  -34.8545 H   0  0  0  0  0  0  0  0  0  0  0  0
  -18.9135   -8.2883  -33.9450 H   0  0  0  0  0  0  0  0  0  0  0  0
  -19.4229   -4.8695  -30.6441 H   0  0  0  0  0  0  0  0  0  0  0  0
  -20.3631   -6.2447  -30.0687 H   0  0  0  0  0  0  0  0  0  0  0  0
  -23.5608   -3.8355  -32.7587 H   0  0  0  0  0  0  0  0  0  0  0  0
  -22.8167   -2.2396  -32.9237 H   0  0  0  0  0  0  0  0  0  0  0  0
  -22.2822   -5.5909  -31.4147 H   0  0  0  0  0  0  0  0  0  0  0  0
  -24.1436   -3.1527  -30.6423 H   0  0  0  0  0  0  0  0  0  0  0  0
  -20.6001   -5.9369  -36.2355 H   0  0  0  0  0  0  0  0  0  0  0  0
  -18.9843   -4.7635  -33.1929 H   0  0  0  0  0  0  0  0  0  0  0  0
  -17.7332   -5.9434  -37.1854 H   0  0  0  0  0  0  0  0  0  0  0  0
  -18.3753   -8.1030  -38.1742 H   0  0  0  0  0  0  0  0  0  0  0  0
  -18.8174   -6.8258  -31.9568 H   0  0  0  0  0  0  0  0  0  0  0  0
  -16.8587   -6.8710  -26.1164 H   0  0  0  0  0  0  0  0  0  0  0  0
  -16.4515   -5.7987  -24.7715 H   0  0  0  0  0  0  0  0  0  0  0  0
  -17.8990   -6.8087  -24.6759 H   0  0  0  0  0  0  0  0  0  0  0  0
  -17.3390   -3.1454  -25.5459 H   0  0  0  0  0  0  0  0  0  0  0  0
  -17.7952   -3.4096  -27.2279 H   0  0  0  0  0  0  0  0  0  0  0  0
  -16.3122   -4.1350  -26.5756 H   0  0  0  0  0  0  0  0  0  0  0  0
  -23.4735    0.7639  -29.0914 H   0  0  0  0  0  0  0  0  0  0  0  0
  -23.8466    1.4010  -30.7303 H   0  0  0  0  0  0  0  0  0  0  0  0
  -22.2463    0.7208  -30.3738 H   0  0  0  0  0  0  0  0  0  0  0  0
  -20.2971   -5.6593  -38.7664 H   0  0  0  0  0  0  0  0  0  0  0  0
  -18.6710   -5.9085  -39.4305 H   0  0  0  0  0  0  0  0  0  0  0  0
  -19.0498   -4.4167  -38.5480 H   0  0  0  0  0  0  0  0  0  0  0  0
  -17.3376   -4.9785  -34.4598 H   0  0  0  0  0  0  0  0  0  0  0  0
  -17.0289   -6.4542  -35.3948 H   0  0  0  0  0  0  0  0  0  0  0  0
  -17.2268   -6.5448  -33.6339 H   0  0  0  0  0  0  0  0  0  0  0  0
  -22.4159   -6.2683  -33.3159 H   0  0  0  0  0  0  0  0  0  0  0  0
  -21.9564   -6.1283  -35.0236 H   0  0  0  0  0  0  0  0  0  0  0  0
  -23.0889   -4.9630  -34.3114 H   0  0  0  0  0  0  0  0  0  0  0  0
  -19.3541   -3.1935  -32.1277 H   0  0  0  0  0  0  0  0  0  0  0  0
  -20.5376   -2.3384  -31.1201 H   0  0  0  0  0  0  0  0  0  0  0  0
  -20.4219   -1.9764  -32.8531 H   0  0  0  0  0  0  0  0  0  0  0  0
  -26.2778   -3.3832  -26.8215 H   0  0  0  0  0  0  0  0  0  0  0  0
  -26.1545   -1.9131  -25.8374 H   0  0  0  0  0  0  0  0  0  0  0  0
  -25.4918   -1.9333  -27.4706 H   0  0  0  0  0  0  0  0  0  0  0  0
  -21.2432   -4.1399  -26.1872 H   0  0  0  0  0  0  0  0  0  0  0  0
  -19.8967   -3.4526  -27.0569 H   0  0  0  0  0  0  0  0  0  0  0  0
  -20.1324   -5.0760  -28.8840 H   0  0  0  0  0  0  0  0  0  0  0  0
  -21.3932   -5.9334  -28.0263 H   0  0  0  0  0  0  0  0  0  0  0  0
  -23.6932   -2.1352  -25.7629 H   0  0  0  0  0  0  0  0  0  0  0  0
  -23.6061   -4.7547  -27.0216 H   0  0  0  0  0  0  0  0  0  0  0  0
  -20.3925   -8.9719  -37.7903 H   0  0  0  0  0  0  0  0  0  0  0  0
  -20.6603   -7.9978  -31.5074 H   0  0  0  0  0  0  0  0  0  0  0  0
  1  2  2  0  0  0  0
  1  3  1  0  0  0  0
  2  4  1  0  0  0  0
  3  5  2  0  0  0  0
  4  6  2  0  0  0  0
  5  6  1  0  0  0  0
  6 39  1  0  0  0  0
  7  9  2  0  0  0  0
  7 19  1  0  0  0  0
  7 20  1  0  0  0  0
  8 10  2  0  0  0  0
  8 37  1  0  0  0  0
  9 11  1  0  0  0  0
  9 38  1  0  0  0  0
 10 29  1  0  0  0  0
 10 30  1  0  0  0  0
 11 40  1  0  0  0  0
 11 41  2  0  0  0  0
 12 31  1  0  0  0  0
 12 42  2  0  0  0  0
 12 45  1  0  0  0  0
 13 15  1  0  0  0  0
 13 21  1  0  0  0  0
 14 16  1  0  0  0  0
 14 24  1  0  0  0  0
 15 27  1  0  0  0  0
 16 26  1  0  0  0  0
 17 19  1  0  0  0  0
 17 25  1  0  0  0  0
 18 20  1  0  0  0  0
 18 28  1  0  0  0  0
 19 28  1  0  0  0  0
 20 45  1  0  0  0  0
 21 23  1  0  0  0  0
 21 26  1  0  0  0  0
 22 25  1  0  0  0  0
 22 26  1  0  0  0  0
 22 27  1  0  0  0  0
 23 24  1  0  0  0  0
 23 32  1  0  0  0  0
 24 43  1  0  0  0  0
 25 44  1  0  0  0  0
 26 33  1  0  0  0  0
 27 28  1  0  0  0  0
 27 34  1  0  0  0  0
 28 35  1  0  0  0  0
 36 39  1  0  0  0  0
 37 38  1  0  0  0  0
 39 40  1  0  0  0  0
  1 46  1  0  0  0  0
  2 47  1  0  0  0  0
  3 48  1  0  0  0  0
  4 49  1  0  0  0  0
  5 50  1  0  0  0  0
  8 51  1  0  0  0  0
 13 52  1  0  0  0  0
 13 53  1  0  0  0  0
 14 54  1  0  0  0  0
 14 55  1  0  0  0  0
 15 56  1  0  0  0  0
 15 57  1  0  0  0  0
 16 58  1  0  0  0  0
 16 59  1  0  0  0  0
 17 60  1  0  0  0  0
 17 61  1  0  0  0  0
 18 62  1  0  0  0  0
 18 63  1  0  0  0  0
 19 64  1  0  0  0  0
 20 65  1  0  0  0  0
 21 66  1  0  0  0  0
 22 67  1  0  0  0  0
 23 68  1  0  0  0  0
 24 69  1  0  0  0  0
 25 70  1  0  0  0  0
 29 71  1  0  0  0  0
 29 72  1  0  0  0  0
 29 73  1  0  0  0  0
 30 74  1  0  0  0  0
 30 75  1  0  0  0  0
 30 76  1  0  0  0  0
 31 77  1  0  0  0  0
 31 78  1  0  0  0  0
 31 79  1  0  0  0  0
 32 80  1  0  0  0  0
 32 81  1  0  0  0  0
 32 82  1  0  0  0  0
 33 83  1  0  0  0  0
 33 84  1  0  0  0  0
 33 85  1  0  0  0  0
 34 86  1  0  0  0  0
 34 87  1  0  0  0  0
 34 88  1  0  0  0  0
 35 89  1  0  0  0  0
 35 90  1  0  0  0  0
 35 91  1  0  0  0  0
 36 92  1  0  0  0  0
 36 93  1  0  0  0  0
 36 94  1  0  0  0  0
 37 95  1  0  0  0  0
 37 96  1  0  0  0  0
 38 97  1  0  0  0  0
 38 98  1  0  0  0  0
 39 99  1  0  0  0  0
 40100  1  0  0  0  0
 43101  1  0  0  0  0
 44102  1  0  0  0  0
M  END
> <SMILES>
C[C@H](NC(=O)/C(=C/1\[C@H](C[C@@]2(C)[C@H]1C[C@@H](O)[C@H]1[C@@]3(C)CC[C@@H](O)[C@@H](C)[C@@H]3CC[C@@]12C)OC(=O)C)CCC=C(C)C)c1ccccc1

> <FORMATTED_ID>
H3D-005459

> <MOLFORMULA>
C39H57NO5

> <Exact Mass>
619.42

> <XLogP>
7.54

> <TPSA_NOPS>
95.9

> <s_m_source_file>
ligprep_h3d.sdf

> <i_m_source_file_index>
2370

> <i_lp_mmshare_version>
55123

> <i_f3d_flags>
0

> <s_epik_input>
W2NIXTFbY0hdW2NIXVtjSF1bY0hdYzFbQ0BIXShbQ0gzXSlbTkhdQyg9TykvQyhbQ0gyXVtDSDJdW0NIXT1DKFtDSDNdKVtDSDNdKT1DKFxbQ0BIXShbQ0gyXTIpT0MoPU8pW0NIM10pW0NAQEhdKFtDQF0yM1tDSDNdKVtDSDJdW0NAQEhdKFtPSF0pW0NASF00W0NAXTUoW0NIM10pW0NASF0oW0NASF0oW0NIM10pW0NASF0oW09IXSlbQ0gyXVtDSDJdNSlbQ0gyXVtDSDJdW0NAXTM0W0NIM10=

> <s_epik_cmdline>
J2VwaWtfcHl0aG9uJywgJy1waHQnLCAnMC41JywgJy1waCcsICc3LjUnLCAnLXRuJywgJzgnLCAnLW1hJywgJzUwMCcsICctaW1hZScsICc8aW5maWxlLm1hZT4nLCAnLW9tYWUnLCAnPG91dGZpbGUubWFlPic=

> <r_lp_tautomer_probability>
1

> <r_epik_Ionization_Penalty>
1.5927e-06

> <r_epik_Ionization_Penalty_Charging>
0

> <r_epik_Ionization_Penalty_Neutral>
1.5927e-06

> <r_epik_State_Penalty>
-0

> <r_epik_Charging_Adjusted_Penalty>
0

> <i_epik_Tot_Q>
0

> <i_epik_Tot_abs_Q>
0

> <s_epik_Chemistry_Notes>
This compound has an ester and may undergo hydrolysis at high or low pH.

> <s_lp_Force_Field>
S-OPLS

> <r_lp_Energy>
87.3102

> <b_lp_Chiralities_Consistent>
1

> <s_lp_Variant>
ligprep_h3d.sdf:2370-1

> <ROCS_ShapeQuery>
_7L13

> <ROCS_TanimotoCombo>
0.687 

> <ROCS_ShapeTanimoto>
0.603 

> <ROCS_ColorTanimoto>
0.084 

> <ROCS_RefTversky>
0.815 

> <ROCS_RefColorTversky>
0.193 

> <ROCS_RefTverskyCombo>
1.008 

> <ROCS_FitTversky>
0.699 

> <ROCS_FitColorTversky>
0.129 

> <ROCS_FitTverskyCombo>
0.828 

> <ROCS_ColorScore>
-1.782

> <ROCS_Overlap>
1366.517

> <ROCS_Rank>
81                  

$$$$
ligprep_h3d.sdf:5011_1338
  -OEChem-08212117123D

 68 72  0     1  0  0  0  0  0999 V2000
  -20.4730   -5.3090  -36.1123 C   0  0  0  0  0  0  0  0  0  0  0  0
  -20.6037   -7.1422  -34.5440 C   0  0  0  0  0  0  0  0  0  0  0  0
  -19.5818   -6.0425  -36.8954 C   0  0  0  0  0  0  0  0  0  0  0  0
  -19.7124   -7.8757  -35.3271 C   0  0  0  0  0  0  0  0  0  0  0  0
  -23.2766   -4.2019  -24.2498 C   0  0  0  0  0  0  0  0  0  0  0  0
  -25.4650   -4.8714  -25.0241 C   0  0  0  0  0  0  0  0  0  0  0  0
  -23.7315   -4.2391  -22.9318 C   0  0  0  0  0  0  0  0  0  0  0  0
  -25.9199   -4.9087  -23.7061 C   0  0  0  0  0  0  0  0  0  0  0  0
  -17.5985   -5.7137  -25.7748 C   0  0  0  0  0  0  0  0  0  0  0  0
  -17.7476   -3.3032  -25.8375 C   0  0  0  0  0  0  0  0  0  0  0  0
  -16.2468   -4.3805  -24.2806 C   0  0  0  0  0  0  0  0  0  0  0  0
  -20.9840   -5.8589  -34.9365 C   0  0  0  0  0  0  0  0  0  0  0  0
  -19.2015   -7.3258  -36.5028 C   0  0  0  0  0  0  0  0  0  0  0  0
  -18.1484   -4.5511  -26.3147 C   0  0  0  0  0  0  0  0  0  0  0  0
  -24.1433   -4.5180  -25.2960 C   0  0  0  0  0  0  0  0  0  0  0  0
  -25.0531   -4.5926  -22.6599 C   0  0  0  0  0  0  0  0  0  0  0  0
  -16.6477   -5.6284  -24.7577 C   0  0  0  0  0  0  0  0  0  0  0  0
  -16.7967   -3.2179  -24.8205 C   0  0  0  0  0  0  0  0  0  0  0  0
  -22.1911   -3.8286  -31.9466 C   0  0  0  0  0  0  0  0  0  0  0  0
  -22.6400   -3.8600  -29.5081 C   0  0  0  0  0  0  0  0  0  0  0  0
  -19.6823   -5.7563  -28.0000 C   0  0  0  0  0  0  0  0  0  0  0  0
  -19.5951   -3.6660  -28.2559 C   0  0  0  0  0  0  0  0  0  0  0  0
  -20.5881   -4.8942  -30.2944 C   0  0  0  0  0  0  0  0  0  0  0  0
  -22.0605   -4.6971  -28.3756 C   0  0  1  0  0  0  0  0  0  0  0  0
  -20.5762   -4.7571  -28.7693 C   0  0  0  0  0  0  0  0  0  0  0  0
  -21.9485   -5.0662  -34.0889 C   0  0  0  0  0  0  0  0  0  0  0  0
  -22.3611   -4.1335  -26.9994 C   0  0  0  0  0  0  0  0  0  0  0  0
  -21.2330   -4.2226  -33.0422 C   0  0  1  0  0  0  0  0  0  0  0  0
  -18.2497   -8.1101  -37.3416 C   0  0  0  0  0  0  0  0  0  0  0  0
  -19.1035   -4.6363  -27.3371 N   0  0  0  0  0  0  0  0  0  0  0  0
  -21.8121   -4.1843  -30.6622 N   0  0  0  0  0  0  0  0  0  0  0  0
  -20.7700   -2.9661  -33.5562 N   0  0  0  0  0  0  0  0  0  0  0  0
  -23.6878   -4.4806  -26.6159 N   0  0  0  0  0  0  0  0  0  0  0  0
  -23.2309   -3.2248  -32.2163 O   0  0  0  0  0  0  0  0  0  0  0  0
  -25.4900   -4.6283  -21.3941 F   0  0  0  0  0  0  0  0  0  0  0  0
  -16.1185   -6.7451  -24.2408 F   0  0  0  0  0  0  0  0  0  0  0  0
  -16.4103   -2.0195  -24.3637 F   0  0  0  0  0  0  0  0  0  0  0  0
  -17.8337   -7.4484  -38.4618 F   0  0  0  0  0  0  0  0  0  0  0  0
  -17.1025   -8.4577  -36.6868 F   0  0  0  0  0  0  0  0  0  0  0  0
  -18.7865   -9.2831  -37.7876 F   0  0  0  0  0  0  0  0  0  0  0  0
  -20.7635   -4.3097  -36.4257 H   0  0  0  0  0  0  0  0  0  0  0  0
  -20.9981   -7.5788  -33.6301 H   0  0  0  0  0  0  0  0  0  0  0  0
  -19.1902   -5.6066  -37.8106 H   0  0  0  0  0  0  0  0  0  0  0  0
  -19.4213   -8.8749  -35.0142 H   0  0  0  0  0  0  0  0  0  0  0  0
  -22.2446   -3.9255  -24.4503 H   0  0  0  0  0  0  0  0  0  0  0  0
  -26.1491   -5.1193  -25.8317 H   0  0  0  0  0  0  0  0  0  0  0  0
  -23.0569   -3.9933  -22.1170 H   0  0  0  0  0  0  0  0  0  0  0  0
  -26.9489   -5.1835  -23.4938 H   0  0  0  0  0  0  0  0  0  0  0  0
  -17.9030   -6.6910  -26.1397 H   0  0  0  0  0  0  0  0  0  0  0  0
  -18.1689   -2.3909  -26.2518 H   0  0  0  0  0  0  0  0  0  0  0  0
  -15.5054   -4.3148  -23.4898 H   0  0  0  0  0  0  0  0  0  0  0  0
  -23.6582   -4.1792  -29.7496 H   0  0  0  0  0  0  0  0  0  0  0  0
  -22.6471   -2.7851  -29.3171 H   0  0  0  0  0  0  0  0  0  0  0  0
  -20.2009   -6.4263  -27.3013 H   0  0  0  0  0  0  0  0  0  0  0  0
  -18.9553   -6.3315  -28.5845 H   0  0  0  0  0  0  0  0  0  0  0  0
  -18.8403   -3.3223  -28.9652 H   0  0  0  0  0  0  0  0  0  0  0  0
  -20.0614   -2.8156  -27.7507 H   0  0  0  0  0  0  0  0  0  0  0  0
  -19.7452   -4.3708  -30.7580 H   0  0  0  0  0  0  0  0  0  0  0  0
  -20.6139   -5.9278  -30.6510 H   0  0  0  0  0  0  0  0  0  0  0  0
  -22.5202   -5.7345  -28.4260 H   0  0  0  0  0  0  0  0  0  0  0  0
  -22.5474   -4.4249  -34.7497 H   0  0  0  0  0  0  0  0  0  0  0  0
  -22.6693   -5.7473  -33.6160 H   0  0  0  0  0  0  0  0  0  0  0  0
  -21.6370   -4.5639  -26.3098 H   0  0  0  0  0  0  0  0  0  0  0  0
  -22.2500   -3.0525  -27.0625 H   0  0  0  0  0  0  0  0  0  0  0  0
  -20.3906   -4.7409  -32.5835 H   0  0  0  0  0  0  0  0  0  0  0  0
  -20.9261   -2.9284  -34.5442 H   0  0  0  0  0  0  0  0  0  0  0  0
  -21.2670   -2.2183  -33.1138 H   0  0  0  0  0  0  0  0  0  0  0  0
  -24.3683   -4.7208  -27.3416 H   0  0  0  0  0  0  0  0  0  0  0  0
  1  3  1  0  0  0  0
  1 12  2  0  0  0  0
  2  4  2  0  0  0  0
  2 12  1  0  0  0  0
  3 13  2  0  0  0  0
  4 13  1  0  0  0  0
  5  7  1  0  0  0  0
  5 15  2  0  0  0  0
  6  8  2  0  0  0  0
  6 15  1  0  0  0  0
  7 16  2  0  0  0  0
  8 16  1  0  0  0  0
  9 14  2  0  0  0  0
  9 17  1  0  0  0  0
 10 14  1  0  0  0  0
 10 18  2  0  0  0  0
 11 17  2  0  0  0  0
 11 18  1  0  0  0  0
 12 26  1  0  0  0  0
 13 29  1  0  0  0  0
 14 30  1  0  0  0  0
 15 33  1  0  0  0  0
 16 35  1  0  0  0  0
 17 36  1  0  0  0  0
 18 37  1  0  0  0  0
 19 28  1  0  0  0  0
 19 31  1  0  0  0  0
 19 34  2  0  0  0  0
 20 24  1  0  0  0  0
 20 31  1  0  0  0  0
 21 25  1  0  0  0  0
 21 30  1  0  0  0  0
 22 25  1  0  0  0  0
 22 30  1  0  0  0  0
 23 25  1  0  0  0  0
 23 31  1  0  0  0  0
 24 25  1  0  0  0  0
 24 27  1  0  0  0  0
 26 28  1  0  0  0  0
 27 33  1  0  0  0  0
 28 32  1  0  0  0  0
 29 38  1  0  0  0  0
 29 39  1  0  0  0  0
 29 40  1  0  0  0  0
  1 41  1  0  0  0  0
  2 42  1  0  0  0  0
  3 43  1  0  0  0  0
  4 44  1  0  0  0  0
  5 45  1  0  0  0  0
  6 46  1  0  0  0  0
  7 47  1  0  0  0  0
  8 48  1  0  0  0  0
  9 49  1  0  0  0  0
 10 50  1  0  0  0  0
 11 51  1  0  0  0  0
 20 52  1  0  0  0  0
 20 53  1  0  0  0  0
 21 54  1  0  0  0  0
 21 55  1  0  0  0  0
 22 56  1  0  0  0  0
 22 57  1  0  0  0  0
 23 58  1  0  0  0  0
 23 59  1  0  0  0  0
 24 60  1  0  0  0  0
 26 61  1  0  0  0  0
 26 62  1  0  0  0  0
 27 63  1  0  0  0  0
 27 64  1  0  0  0  0
 28 65  1  0  0  0  0
 32 66  1  0  0  0  0
 32 67  1  0  0  0  0
 33 68  1  0  0  0  0
M  END
> <SMILES>
N[C@H](Cc1ccc(cc1)C(F)(F)F)C(=O)N1CC(CNc2ccc(cc2)F)C2(C1)CN(C2)c1cc(cc(c1)F)F

> <FORMATTED_ID>
H3D-009056

> <MOLFORMULA>
C29H28F6N4O

> <Exact Mass>
562.22

> <XLogP>
4.63

> <TPSA_NOPS>
61.6

> <s_m_source_file>
ligprep_h3d.sdf

> <i_m_source_file_index>
5011

> <i_lp_mmshare_version>
55123

> <i_f3d_flags>
0

> <s_epik_input>
W2NIXTFbY0hdYyhDKEYpKEYpRilbY0hdW2NIXWMxW0NIMl1bQ0BASF0oW05IMl0pQyg9TylOKFtDSDJdMilbQ0gyXVtDQEhdKFtDSDJdW05IXWMzW2NIXVtjSF1jKEYpW2NIXVtjSF0zKUMyNFtDSDJdTihbQ0gyXTQpYzVbY0hdYyhGKVtjSF1jKEYpW2NIXTU=

> <s_epik_cmdline>
J2VwaWtfcHl0aG9uJywgJy1waHQnLCAnMC41JywgJy1waCcsICc3LjUnLCAnLXRuJywgJzgnLCAnLW1hJywgJzUwMCcsICctaW1hZScsICc8aW5maWxlLm1hZT4nLCAnLW9tYWUnLCAnPG91dGZpbGUubWFlPic=

> <r_epik_Ionization_Penalty>
0.442245

> <r_epik_Ionization_Penalty_Charging>
0

> <r_epik_Ionization_Penalty_Neutral>
0.442245

> <r_epik_State_Penalty>
0.442014

> <r_epik_Charging_Adjusted_Penalty>
0.442014

> <i_epik_Tot_Q>
0

> <i_epik_Tot_abs_Q>
0

> <s_lp_Force_Field>
S-OPLS

> <r_lp_Energy>
39.6305

> <b_lp_Chiralities_Consistent>
1

> <s_lp_Variant>
ligprep_h3d.sdf:5011-2

> <ROCS_ShapeQuery>
_7L13

> <ROCS_TanimotoCombo>
0.700 

> <ROCS_ShapeTanimoto>
0.639 

> <ROCS_ColorTanimoto>
0.061 

> <ROCS_RefTversky>
0.815 

> <ROCS_RefColorTversky>
0.116 

> <ROCS_RefTverskyCombo>
0.931 

> <ROCS_FitTversky>
0.747 

> <ROCS_FitColorTversky>
0.116 

> <ROCS_FitTverskyCombo>
0.862 

> <ROCS_ColorScore>
-1.042

> <ROCS_Overlap>
1360.564

> <ROCS_Rank>
82                  

$$$$
ligprep_h3d.sdf:1176_1516
  -OEChem-08212117123D

 57 62  0     1  0  0  0  0  0999 V2000
  -20.9821   -5.1213  -29.5180 C   0  0  0  0  0  0  0  0  0  0  0  0
  -21.7597   -4.3596  -30.3924 C   0  0  0  0  0  0  0  0  0  0  0  0
  -21.0923   -4.8858  -28.1259 C   0  0  0  0  0  0  0  0  0  0  0  0
  -21.9903   -3.9362  -27.5843 C   0  0  0  0  0  0  0  0  0  0  0  0
  -22.6066   -3.4123  -29.8607 C   0  0  0  0  0  0  0  0  0  0  0  0
  -22.7514   -3.1658  -28.4952 C   0  0  0  0  0  0  0  0  0  0  0  0
  -21.9593   -4.2465  -31.7808 C   0  0  0  0  0  0  0  0  0  0  0  0
  -19.4209   -6.8092  -35.6295 C   0  0  0  0  0  0  0  0  0  0  0  0
  -20.3186   -6.8534  -33.7300 C   0  0  0  0  0  0  0  0  0  0  0  0
  -18.9222   -3.8309  -26.2112 C   0  0  0  0  0  0  0  0  0  0  0  0
  -19.2619   -6.1017  -25.0389 C   0  0  0  0  0  0  0  0  0  0  0  0
  -17.0038   -5.3382  -25.7432 C   0  0  0  0  0  0  0  0  0  0  0  0
  -20.2240   -5.7110  -27.2141 C   0  0  0  0  0  0  0  0  0  0  0  0
  -23.0497   -2.7983  -25.6436 C   0  0  0  0  0  0  0  0  0  0  0  0
  -21.2145   -4.4814  -25.2423 C   0  0  2  0  0  0  0  0  0  0  0  0
  -23.4179   -3.1160  -24.1916 C   0  0  1  0  0  0  0  0  0  0  0  0
  -21.0451   -3.5521  -24.0052 C   0  0  2  0  0  0  0  0  0  0  0  0
  -19.8876   -4.9833  -25.8885 C   0  0  0  0  0  0  0  0  0  0  0  0
  -18.9044   -6.1929  -36.8580 C   0  0  0  0  0  0  0  0  0  0  0  0
  -24.4072   -4.2740  -24.0754 C   0  0  0  0  0  0  0  0  0  0  0  0
  -20.0894   -4.0413  -22.9235 C   0  0  0  0  0  0  0  0  0  0  0  0
  -20.9666   -6.2836  -32.5025 C   0  0  0  0  0  0  0  0  0  0  0  0
  -22.8560   -3.3046  -32.0889 N   0  0  0  0  0  0  0  0  0  0  0  0
  -19.4464   -8.0722  -35.2733 N   0  0  0  0  0  0  0  0  0  0  0  0
  -20.0372   -8.1013  -34.0237 N   0  0  0  0  0  0  0  0  0  0  0  0
  -17.5801   -4.1758  -26.2349 N   0  0  0  0  0  0  0  0  0  0  0  0
  -17.8853   -6.2262  -25.1433 N   0  0  0  0  0  0  0  0  0  0  0  0
  -22.0974   -3.7671  -26.2017 N   0  0  3  0  0  0  0  0  0  0  0  0
  -19.2990   -2.6936  -26.4938 O   0  0  0  0  0  0  0  0  0  0  0  0
  -19.9343   -6.8947  -24.3784 O   0  0  0  0  0  0  0  0  0  0  0  0
  -15.7909   -5.5482  -25.7985 O   0  0  0  0  0  0  0  0  0  0  0  0
  -23.2629   -2.7760  -30.8694 O   0  0  0  0  0  0  0  0  0  0  0  0
  -19.9576   -5.9707  -34.7013 O   0  0  0  0  0  0  0  0  0  0  0  0
  -22.3050   -3.3832  -23.3437 O   0  0  0  0  0  0  0  0  0  0  0  0
  -21.3797   -4.9345  -32.7735 O   0  0  0  0  0  0  0  0  0  0  0  0
  -23.5300   -2.1424  -28.1248 F   0  0  0  0  0  0  0  0  0  0  0  0
  -20.2979   -5.8732  -29.9011 H   0  0  0  0  0  0  0  0  0  0  0  0
  -20.7552   -6.6526  -27.0179 H   0  0  0  0  0  0  0  0  0  0  0  0
  -19.2948   -5.9775  -27.7362 H   0  0  0  0  0  0  0  0  0  0  0  0
  -23.9629   -2.8348  -26.2733 H   0  0  0  0  0  0  0  0  0  0  0  0
  -22.7342   -1.7442  -25.6812 H   0  0  0  0  0  0  0  0  0  0  0  0
  -21.7950   -5.3587  -24.9172 H   0  0  0  0  0  0  0  0  0  0  0  0
  -23.9603   -2.2078  -23.7525 H   0  0  0  0  0  0  0  0  0  0  0  0
  -20.6969   -2.5492  -24.3136 H   0  0  0  0  0  0  0  0  0  0  0  0
  -19.6848   -6.1286  -37.6379 H   0  0  0  0  0  0  0  0  0  0  0  0
  -18.5246   -5.1678  -36.6880 H   0  0  0  0  0  0  0  0  0  0  0  0
  -18.0556   -6.7575  -37.2882 H   0  0  0  0  0  0  0  0  0  0  0  0
  -23.9630   -5.1854  -24.4758 H   0  0  0  0  0  0  0  0  0  0  0  0
  -25.3142   -4.0470  -24.6356 H   0  0  0  0  0  0  0  0  0  0  0  0
  -24.6685   -4.4376  -23.0299 H   0  0  0  0  0  0  0  0  0  0  0  0
  -20.3887   -5.0322  -22.5818 H   0  0  0  0  0  0  0  0  0  0  0  0
  -20.1032   -3.3558  -22.0761 H   0  0  0  0  0  0  0  0  0  0  0  0
  -19.0749   -4.0949  -23.3188 H   0  0  0  0  0  0  0  0  0  0  0  0
  -21.8425   -6.8737  -32.2120 H   0  0  0  0  0  0  0  0  0  0  0  0
  -20.2670   -6.2826  -31.6597 H   0  0  0  0  0  0  0  0  0  0  0  0
  -16.9486   -3.5034  -26.6592 H   0  0  0  0  0  0  0  0  0  0  0  0
  -17.4692   -7.0311  -24.6841 H   0  0  0  0  0  0  0  0  0  0  0  0
  1  2  2  0  0  0  0
  1  3  1  0  0  0  0
  2  5  1  0  0  0  0
  2  7  1  0  0  0  0
  3  4  2  0  0  0  0
  3 13  1  0  0  0  0
  4  6  1  0  0  0  0
  4 28  1  0  0  0  0
  5  6  2  0  0  0  0
  5 32  1  0  0  0  0
  6 36  1  0  0  0  0
  7 23  2  0  0  0  0
  7 35  1  0  0  0  0
  8 19  1  0  0  0  0
  8 24  2  0  0  0  0
  8 33  1  0  0  0  0
  9 22  1  0  0  0  0
  9 25  2  0  0  0  0
  9 33  1  0  0  0  0
 10 18  1  0  0  0  0
 10 26  1  0  0  0  0
 10 29  2  0  0  0  0
 11 18  1  0  0  0  0
 11 27  1  0  0  0  0
 11 30  2  0  0  0  0
 12 26  1  0  0  0  0
 12 27  1  0  0  0  0
 12 31  2  0  0  0  0
 13 18  1  0  0  0  0
 14 16  1  0  0  0  0
 14 28  1  0  0  0  0
 15 17  1  0  0  0  0
 15 18  1  0  0  0  0
 15 28  1  0  0  0  0
 16 20  1  0  0  0  0
 16 34  1  0  0  0  0
 17 21  1  0  0  0  0
 17 34  1  0  0  0  0
 22 35  1  0  0  0  0
 23 32  1  0  0  0  0
 24 25  1  0  0  0  0
  1 37  1  0  0  0  0
 13 38  1  0  0  0  0
 13 39  1  0  0  0  0
 14 40  1  0  0  0  0
 14 41  1  0  0  0  0
 15 42  1  0  0  0  0
 16 43  1  0  0  0  0
 17 44  1  0  0  0  0
 19 45  1  0  0  0  0
 19 46  1  0  0  0  0
 19 47  1  0  0  0  0
 20 48  1  0  0  0  0
 20 49  1  0  0  0  0
 20 50  1  0  0  0  0
 21 51  1  0  0  0  0
 21 52  1  0  0  0  0
 21 53  1  0  0  0  0
 22 54  1  0  0  0  0
 22 55  1  0  0  0  0
 26 56  1  0  0  0  0
 27 57  1  0  0  0  0
M  END
> <SMILES>
C[C@@H]1CN2[C@H]([C@H](C)O1)C1(Cc3cc4c(noc4c(c32)F)OCc2nnc(o2)C)C(=O)NC(=O)NC1=O

> <FORMATTED_ID>
H3D-008195

> <MOLFORMULA>
C22H21FN6O7

> <Exact Mass>
500.15

> <XLogP>
1.36

> <TPSA_NOPS>
162.5

> <s_m_source_file>
ligprep_h3d.sdf

> <i_m_source_file_index>
1176

> <i_lp_mmshare_version>
55123

> <i_f3d_flags>
0

> <s_epik_input>
Tz1DMVtOSF1DKD1PKVtOSF1DKD1PKUMxMltDQEBIXTNOKFtDSDJdW0NAQEhdKFtDSDNdKU9bQ0BIXTNbQ0gzXSljNGMoW0NIMl0yKVtjSF1jNWMoYzRGKW9uYzVPW0NIMl1jNm5uYyhvNilbQ0gzXQ==

> <s_epik_cmdline>
J2VwaWtfcHl0aG9uJywgJy1waHQnLCAnMC41JywgJy1waCcsICc3LjUnLCAnLXRuJywgJzgnLCAnLW1hJywgJzUwMCcsICctaW1hZScsICc8aW5maWxlLm1hZT4nLCAnLW9tYWUnLCAnPG91dGZpbGUubWFlPic=

> <r_lp_tautomer_probability>
1

> <r_epik_Ionization_Penalty>
0.369125

> <r_epik_Ionization_Penalty_Charging>
0

> <r_epik_Ionization_Penalty_Neutral>
0.369125

> <r_epik_State_Penalty>
0.366447

> <r_epik_Charging_Adjusted_Penalty>
0.366447

> <i_epik_Tot_Q>
0

> <i_epik_Tot_abs_Q>
0

> <s_lp_Force_Field>
S-OPLS

> <r_lp_Energy>
44.1116

> <b_lp_Chiralities_Consistent>
1

> <s_lp_Variant>
ligprep_h3d.sdf:1176-1

> <ROCS_ShapeQuery>
_7L13

> <ROCS_TanimotoCombo>
0.793 

> <ROCS_ShapeTanimoto>
0.671 

> <ROCS_ColorTanimoto>
0.123 

> <ROCS_RefTversky>
0.815 

> <ROCS_RefColorTversky>
0.296 

> <ROCS_RefTverskyCombo>
1.111 

> <ROCS_FitTversky>
0.791 

> <ROCS_FitColorTversky>
0.173 

> <ROCS_FitTverskyCombo>
0.965 

> <ROCS_ColorScore>
-2.770

> <ROCS_Overlap>
1355.817

> <ROCS_Rank>
83                  

$$$$
ligprep_h3d.sdf:2406_1423
  -OEChem-08212117123D

 99103  0     1  0  0  0  0  0999 V2000
  -24.1193   -3.6609  -23.1598 C   0  0  0  0  0  0  0  0  0  0  0  0
  -24.6723   -4.7268  -25.2563 C   0  0  0  0  0  0  0  0  0  0  0  0
  -25.1125   -4.4030  -22.5206 C   0  0  0  0  0  0  0  0  0  0  0  0
  -25.6654   -5.4689  -24.6171 C   0  0  0  0  0  0  0  0  0  0  0  0
  -23.8993   -3.8228  -24.5277 C   0  0  0  0  0  0  0  0  0  0  0  0
  -25.8855   -5.3070  -23.2492 C   0  0  0  0  0  0  0  0  0  0  0  0
  -21.3466   -4.1110  -29.4000 C   0  0  0  0  0  0  0  0  0  0  0  0
  -17.9074   -5.7104  -26.1047 C   0  0  0  0  0  0  0  0  0  0  0  0
  -20.7645   -4.1211  -28.1951 C   0  0  0  0  0  0  0  0  0  0  0  0
  -16.6589   -5.3353  -25.7671 C   0  0  0  0  0  0  0  0  0  0  0  0
  -21.2636   -3.1974  -27.1294 C   0  0  0  0  0  0  0  0  0  0  0  0
  -23.1604   -0.9532  -29.3992 C   0  0  0  0  0  0  0  0  0  0  0  0
  -20.6352   -4.3086  -35.6578 C   0  0  0  0  0  0  0  0  0  0  0  0
  -19.5063   -8.5840  -36.0154 C   0  0  0  0  0  0  0  0  0  0  0  0
  -21.4166   -3.9203  -34.3905 C   0  0  0  0  0  0  0  0  0  0  0  0
  -19.7885   -7.9336  -34.6495 C   0  0  0  0  0  0  0  0  0  0  0  0
  -19.6152   -5.6504  -30.6893 C   0  0  0  0  0  0  0  0  0  0  0  0
  -22.6041   -3.4111  -31.3425 C   0  0  0  0  0  0  0  0  0  0  0  0
  -20.9790   -4.9722  -30.5837 C   0  0  2  0  0  0  0  0  0  0  0  0
  -22.4565   -3.1693  -29.8238 C   0  0  2  0  0  0  0  0  0  0  0  0
  -20.5061   -5.8229  -35.7894 C   0  0  1  0  0  0  0  0  0  0  0  0
  -19.8927   -5.6664  -33.2567 C   0  0  1  0  0  0  0  0  0  0  0  0
  -20.1088   -6.3741  -37.1857 C   0  0  1  0  0  0  0  0  0  0  0  0
  -20.2467   -7.9190  -37.1783 C   0  0  2  0  0  0  0  0  0  0  0  0
  -19.5386   -6.4892  -31.9813 C   0  0  2  0  0  0  0  0  0  0  0  0
  -19.5963   -6.3950  -34.6479 C   0  0  1  0  0  0  0  0  0  0  0  0
  -21.2624   -4.8743  -33.1537 C   0  0  1  0  0  0  0  0  0  0  0  0
  -21.2496   -4.0282  -31.7891 C   0  0  1  0  0  0  0  0  0  0  0  0
  -15.5998   -6.3728  -25.5030 C   0  0  0  0  0  0  0  0  0  0  0  0
  -16.1855   -3.9179  -25.6114 C   0  0  0  0  0  0  0  0  0  0  0  0
  -22.7479    0.1666  -28.4927 C   0  0  0  0  0  0  0  0  0  0  0  0
  -20.9415   -5.7677  -38.3229 C   0  0  0  0  0  0  0  0  0  0  0  0
  -18.0806   -6.1197  -34.9314 C   0  0  0  0  0  0  0  0  0  0  0  0
  -22.4759   -5.8543  -33.1635 C   0  0  0  0  0  0  0  0  0  0  0  0
  -20.1982   -2.8610  -31.8328 C   0  0  0  0  0  0  0  0  0  0  0  0
  -22.8299   -3.0249  -25.2163 C   0  0  0  0  0  0  0  0  0  0  0  0
  -19.0900   -4.8334  -26.4127 C   0  0  0  0  0  0  0  0  0  0  0  0
  -19.5553   -4.9629  -27.8697 C   0  0  0  0  0  0  0  0  0  0  0  0
  -22.2662   -3.7343  -26.3414 N   0  0  0  0  0  0  0  0  0  0  0  0
  -20.7506   -2.0922  -26.9724 O   0  0  0  0  0  0  0  0  0  0  0  0
  -24.2771   -1.0640  -29.8870 O   0  0  0  0  0  0  0  0  0  0  0  0
  -21.6196   -8.3057  -37.0782 O   0  0  0  0  0  0  0  0  0  0  0  0
  -20.4060   -7.6112  -31.8444 O   0  0  0  0  0  0  0  0  0  0  0  0
  -22.1118   -1.8120  -29.5887 O   0  0  0  0  0  0  0  0  0  0  0  0
  -26.8374   -6.0216  -22.6349 F   0  0  0  0  0  0  0  0  0  0  0  0
  -23.5226   -2.9584  -22.5839 H   0  0  0  0  0  0  0  0  0  0  0  0
  -24.5078   -4.8598  -26.3224 H   0  0  0  0  0  0  0  0  0  0  0  0
  -25.2834   -4.2776  -21.4557 H   0  0  0  0  0  0  0  0  0  0  0  0
  -26.2678   -6.1724  -25.1841 H   0  0  0  0  0  0  0  0  0  0  0  0
  -18.1164   -6.7771  -26.1800 H   0  0  0  0  0  0  0  0  0  0  0  0
  -21.1637   -3.8712  -36.5108 H   0  0  0  0  0  0  0  0  0  0  0  0
  -19.6469   -3.8363  -35.6428 H   0  0  0  0  0  0  0  0  0  0  0  0
  -18.4294   -8.5722  -36.2157 H   0  0  0  0  0  0  0  0  0  0  0  0
  -19.7945   -9.6410  -35.9527 H   0  0  0  0  0  0  0  0  0  0  0  0
  -21.1293   -2.8926  -34.1587 H   0  0  0  0  0  0  0  0  0  0  0  0
  -22.4796   -3.8433  -34.6562 H   0  0  0  0  0  0  0  0  0  0  0  0
  -20.8148   -8.1818  -34.3562 H   0  0  0  0  0  0  0  0  0  0  0  0
  -19.1250   -8.4081  -33.9173 H   0  0  0  0  0  0  0  0  0  0  0  0
  -18.8062   -4.9117  -30.6741 H   0  0  0  0  0  0  0  0  0  0  0  0
  -19.4673   -6.3059  -29.8225 H   0  0  0  0  0  0  0  0  0  0  0  0
  -23.4283   -4.1161  -31.4899 H   0  0  0  0  0  0  0  0  0  0  0  0
  -22.8443   -2.4967  -31.8955 H   0  0  0  0  0  0  0  0  0  0  0  0
  -21.7270   -5.7743  -30.5528 H   0  0  0  0  0  0  0  0  0  0  0  0
  -23.3951   -3.3921  -29.3083 H   0  0  0  0  0  0  0  0  0  0  0  0
  -21.5232   -6.2010  -35.6484 H   0  0  0  0  0  0  0  0  0  0  0  0
  -19.1427   -4.8674  -33.2401 H   0  0  0  0  0  0  0  0  0  0  0  0
  -19.0661   -6.1188  -37.4025 H   0  0  0  0  0  0  0  0  0  0  0  0
  -19.8648   -8.3329  -38.1192 H   0  0  0  0  0  0  0  0  0  0  0  0
  -18.5193   -6.8814  -32.0723 H   0  0  0  0  0  0  0  0  0  0  0  0
  -15.0698   -6.6175  -26.4296 H   0  0  0  0  0  0  0  0  0  0  0  0
  -14.8551   -6.0344  -24.7748 H   0  0  0  0  0  0  0  0  0  0  0  0
  -16.0555   -7.2878  -25.1105 H   0  0  0  0  0  0  0  0  0  0  0  0
  -16.3015   -3.5235  -24.6003 H   0  0  0  0  0  0  0  0  0  0  0  0
  -16.7435   -3.2603  -26.2862 H   0  0  0  0  0  0  0  0  0  0  0  0
  -15.1222   -3.8475  -25.8647 H   0  0  0  0  0  0  0  0  0  0  0  0
  -22.9475   -0.1050  -27.4532 H   0  0  0  0  0  0  0  0  0  0  0  0
  -23.2851    1.0794  -28.7626 H   0  0  0  0  0  0  0  0  0  0  0  0
  -21.6752    0.3483  -28.6058 H   0  0  0  0  0  0  0  0  0  0  0  0
  -21.9924   -5.9904  -38.1604 H   0  0  0  0  0  0  0  0  0  0  0  0
  -20.6236   -6.1928  -39.2707 H   0  0  0  0  0  0  0  0  0  0  0  0
  -20.7980   -4.6910  -38.3422 H   0  0  0  0  0  0  0  0  0  0  0  0
  -17.9334   -5.0537  -34.9329 H   0  0  0  0  0  0  0  0  0  0  0  0
  -17.8420   -6.5439  -35.8912 H   0  0  0  0  0  0  0  0  0  0  0  0
  -17.5083   -6.5876  -34.1491 H   0  0  0  0  0  0  0  0  0  0  0  0
  -22.3811   -6.5157  -32.3173 H   0  0  0  0  0  0  0  0  0  0  0  0
  -22.4519   -6.4103  -34.0869 H   0  0  0  0  0  0  0  0  0  0  0  0
  -23.3799   -5.2710  -33.0925 H   0  0  0  0  0  0  0  0  0  0  0  0
  -19.2587   -3.2815  -32.1412 H   0  0  0  0  0  0  0  0  0  0  0  0
  -20.1334   -2.4450  -30.8442 H   0  0  0  0  0  0  0  0  0  0  0  0
  -20.5505   -2.1328  -32.5402 H   0  0  0  0  0  0  0  0  0  0  0  0
  -23.2333   -2.0752  -25.5841 H   0  0  0  0  0  0  0  0  0  0  0  0
  -22.0128   -2.7862  -24.5275 H   0  0  0  0  0  0  0  0  0  0  0  0
  -19.9288   -5.0076  -25.7332 H   0  0  0  0  0  0  0  0  0  0  0  0
  -18.7832   -3.7939  -26.2396 H   0  0  0  0  0  0  0  0  0  0  0  0
  -18.7297   -4.6724  -28.5319 H   0  0  0  0  0  0  0  0  0  0  0  0
  -19.7563   -6.0192  -28.0929 H   0  0  0  0  0  0  0  0  0  0  0  0
  -22.6186   -4.6609  -26.5620 H   0  0  0  0  0  0  0  0  0  0  0  0
  -21.6349   -9.2719  -37.1413 H   0  0  0  0  0  0  0  0  0  0  0  0
  -20.0891   -8.1140  -31.0779 H   0  0  0  0  0  0  0  0  0  0  0  0
  1  3  1  0  0  0  0
  1  5  2  0  0  0  0
  2  4  2  0  0  0  0
  2  5  1  0  0  0  0
  3  6  2  0  0  0  0
  4  6  1  0  0  0  0
  5 36  1  0  0  0  0
  6 45  1  0  0  0  0
  7  9  2  0  0  0  0
  7 19  1  0  0  0  0
  7 20  1  0  0  0  0
  8 10  2  0  0  0  0
  8 37  1  0  0  0  0
  9 11  1  0  0  0  0
  9 38  1  0  0  0  0
 10 29  1  0  0  0  0
 10 30  1  0  0  0  0
 11 39  1  0  0  0  0
 11 40  2  0  0  0  0
 12 31  1  0  0  0  0
 12 41  2  0  0  0  0
 12 44  1  0  0  0  0
 13 15  1  0  0  0  0
 13 21  1  0  0  0  0
 14 16  1  0  0  0  0
 14 24  1  0  0  0  0
 15 27  1  0  0  0  0
 16 26  1  0  0  0  0
 17 19  1  0  0  0  0
 17 25  1  0  0  0  0
 18 20  1  0  0  0  0
 18 28  1  0  0  0  0
 19 28  1  0  0  0  0
 20 44  1  0  0  0  0
 21 23  1  0  0  0  0
 21 26  1  0  0  0  0
 22 25  1  0  0  0  0
 22 26  1  0  0  0  0
 22 27  1  0  0  0  0
 23 24  1  0  0  0  0
 23 32  1  0  0  0  0
 24 42  1  0  0  0  0
 25 43  1  0  0  0  0
 26 33  1  0  0  0  0
 27 28  1  0  0  0  0
 27 34  1  0  0  0  0
 28 35  1  0  0  0  0
 36 39  1  0  0  0  0
 37 38  1  0  0  0  0
  1 46  1  0  0  0  0
  2 47  1  0  0  0  0
  3 48  1  0  0  0  0
  4 49  1  0  0  0  0
  8 50  1  0  0  0  0
 13 51  1  0  0  0  0
 13 52  1  0  0  0  0
 14 53  1  0  0  0  0
 14 54  1  0  0  0  0
 15 55  1  0  0  0  0
 15 56  1  0  0  0  0
 16 57  1  0  0  0  0
 16 58  1  0  0  0  0
 17 59  1  0  0  0  0
 17 60  1  0  0  0  0
 18 61  1  0  0  0  0
 18 62  1  0  0  0  0
 19 63  1  0  0  0  0
 20 64  1  0  0  0  0
 21 65  1  0  0  0  0
 22 66  1  0  0  0  0
 23 67  1  0  0  0  0
 24 68  1  0  0  0  0
 25 69  1  0  0  0  0
 29 70  1  0  0  0  0
 29 71  1  0  0  0  0
 29 72  1  0  0  0  0
 30 73  1  0  0  0  0
 30 74  1  0  0  0  0
 30 75  1  0  0  0  0
 31 76  1  0  0  0  0
 31 77  1  0  0  0  0
 31 78  1  0  0  0  0
 32 79  1  0  0  0  0
 32 80  1  0  0  0  0
 32 81  1  0  0  0  0
 33 82  1  0  0  0  0
 33 83  1  0  0  0  0
 33 84  1  0  0  0  0
 34 85  1  0  0  0  0
 34 86  1  0  0  0  0
 34 87  1  0  0  0  0
 35 88  1  0  0  0  0
 35 89  1  0  0  0  0
 35 90  1  0  0  0  0
 36 91  1  0  0  0  0
 36 92  1  0  0  0  0
 37 93  1  0  0  0  0
 37 94  1  0  0  0  0
 38 95  1  0  0  0  0
 38 96  1  0  0  0  0
 39 97  1  0  0  0  0
 42 98  1  0  0  0  0
 43 99  1  0  0  0  0
M  END
> <SMILES>
C[C@@H]1[C@H](O)CC[C@@]2(C)[C@H]1CC[C@@]1(C)[C@H]2[C@H](O)C[C@H]2/C(=C(\CCC=C(C)C)C(=O)NCc3ccc(cc3)F)[C@H](C[C@@]21C)OC(=O)C

> <FORMATTED_ID>
H3D-005611

> <MOLFORMULA>
C38H54FNO5

> <Exact Mass>
623.4

> <XLogP>
7.14

> <TPSA_NOPS>
95.9

> <s_m_source_file>
ligprep_h3d.sdf

> <i_m_source_file_index>
2406

> <i_lp_mmshare_version>
55123

> <i_f3d_flags>
0

> <s_epik_input>
W0NIMl0xW0NIMl1bQ0BASF0oW09IXSlbQ0BASF0oW0NIM10pW0NAQEhdKFtDQF0xMltDSDNdKVtDSDJdW0NIMl1bQ0BAXTMoW0NIM10pW0NASF0yW0NASF0oW09IXSlbQ0gyXVtDQEBIXTRbQ0BdMyhbQ0gzXSlbQ0gyXVtDQEhdKE9DKD1PKVtDSDNdKUNcND1DKFxbQ0gyXVtDSDJdW0NIXT1DKFtDSDNdKVtDSDNdKUMoPU8pW05IXVtDSDJdYzVbY0hdW2NIXWMoRilbY0hdW2NIXTU=

> <s_epik_cmdline>
J2VwaWtfcHl0aG9uJywgJy1waHQnLCAnMC41JywgJy1waCcsICc3LjUnLCAnLXRuJywgJzgnLCAnLW1hJywgJzUwMCcsICctaW1hZScsICc8aW5maWxlLm1hZT4nLCAnLW9tYWUnLCAnPG91dGZpbGUubWFlPic=

> <r_lp_tautomer_probability>
1

> <r_epik_Ionization_Penalty>
1.64975e-06

> <r_epik_Ionization_Penalty_Charging>
0

> <r_epik_Ionization_Penalty_Neutral>
1.64975e-06

> <r_epik_State_Penalty>
-0

> <r_epik_Charging_Adjusted_Penalty>
0

> <i_epik_Tot_Q>
0

> <i_epik_Tot_abs_Q>
0

> <s_epik_Chemistry_Notes>
This compound has an ester and may undergo hydrolysis at high or low pH.

> <s_lp_Force_Field>
S-OPLS

> <r_lp_Energy>
83.1708

> <b_lp_Chiralities_Consistent>
1

> <s_lp_Variant>
ligprep_h3d.sdf:2406-1

> <ROCS_ShapeQuery>
_7L13

> <ROCS_TanimotoCombo>
0.710 

> <ROCS_ShapeTanimoto>
0.601 

> <ROCS_ColorTanimoto>
0.109 

> <ROCS_RefTversky>
0.815 

> <ROCS_RefColorTversky>
0.245 

> <ROCS_RefTverskyCombo>
1.060 

> <ROCS_FitTversky>
0.697 

> <ROCS_FitColorTversky>
0.165 

> <ROCS_FitTverskyCombo>
0.861 

> <ROCS_ColorScore>
-2.266

> <ROCS_Overlap>
1365.442

> <ROCS_Rank>
84                  

$$$$
ligprep_h3d.sdf:1176_1079
  -OEChem-08212117123D

 56 61  0     1  0  0  0  0  0999 V2000
  -20.9926   -5.0997  -29.5248 C   0  0  0  0  0  0  0  0  0  0  0  0
  -21.7990   -4.3552  -30.3883 C   0  0  0  0  0  0  0  0  0  0  0  0
  -21.0912   -4.8671  -28.1319 C   0  0  0  0  0  0  0  0  0  0  0  0
  -22.0036   -3.9377  -27.5784 C   0  0  0  0  0  0  0  0  0  0  0  0
  -22.6611   -3.4280  -29.8454 C   0  0  0  0  0  0  0  0  0  0  0  0
  -22.7948   -3.1853  -28.4781 C   0  0  0  0  0  0  0  0  0  0  0  0
  -22.0186   -4.2460  -31.7741 C   0  0  0  0  0  0  0  0  0  0  0  0
  -19.4929   -7.6345  -35.2216 C   0  0  0  0  0  0  0  0  0  0  0  0
  -19.6198   -6.0679  -33.8267 C   0  0  0  0  0  0  0  0  0  0  0  0
  -18.9036   -3.7150  -26.2873 C   0  0  0  0  0  0  0  0  0  0  0  0
  -19.1390   -5.9407  -25.0657 C   0  0  0  0  0  0  0  0  0  0  0  0
  -17.0051   -4.9955  -25.9173 C   0  0  0  0  0  0  0  0  0  0  0  0
  -20.1974   -5.6714  -27.2263 C   0  0  0  0  0  0  0  0  0  0  0  0
  -23.0800   -2.8461  -25.6207 C   0  0  0  0  0  0  0  0  0  0  0  0
  -21.1636   -4.4452  -25.2499 C   0  0  2  0  0  0  0  0  0  0  0  0
  -23.4135   -3.1838  -24.1646 C   0  0  1  0  0  0  0  0  0  0  0  0
  -21.0201   -3.5098  -24.0135 C   0  0  2  0  0  0  0  0  0  0  0  0
  -19.8325   -4.9002  -25.9338 C   0  0  2  0  0  0  0  0  0  0  0  0
  -19.7884   -8.9559  -35.7892 C   0  0  0  0  0  0  0  0  0  0  0  0
  -24.3515   -4.3829  -24.0398 C   0  0  0  0  0  0  0  0  0  0  0  0
  -20.0252   -3.9480  -22.9463 C   0  0  0  0  0  0  0  0  0  0  0  0
  -20.0848   -5.3695  -32.5827 C   0  0  0  0  0  0  0  0  0  0  0  0
  -22.9402   -3.3247  -32.0703 N   0  0  0  0  0  0  0  0  0  0  0  0
  -18.7139   -6.6822  -35.6787 N   0  0  0  0  0  0  0  0  0  0  0  0
  -18.7973   -5.6516  -34.7609 N   0  0  0  0  0  0  0  0  0  0  0  0
  -17.6341   -4.0155  -26.5673 N   0  5  0  0  0  0  0  0  0  0  0  0
  -17.7621   -5.8754  -25.1458 N   0  0  0  0  0  0  0  0  0  0  0  0
  -22.0957   -3.7723  -26.1943 N   0  0  3  0  0  0  0  0  0  0  0  0
  -19.3573   -2.5777  -26.4121 O   0  0  0  0  0  0  0  0  0  0  0  0
  -19.7316   -6.8025  -24.4204 O   0  0  0  0  0  0  0  0  0  0  0  0
  -15.7852   -5.1684  -25.9844 O   0  0  0  0  0  0  0  0  0  0  0  0
  -23.3442   -2.8064  -30.8453 O   0  0  0  0  0  0  0  0  0  0  0  0
  -20.1051   -7.3203  -34.0472 O   0  0  0  0  0  0  0  0  0  0  0  0
  -22.2784   -3.4087  -23.3337 O   0  0  0  0  0  0  0  0  0  0  0  0
  -21.4358   -4.9202  -32.7744 O   0  0  0  0  0  0  0  0  0  0  0  0
  -23.5922   -2.1816  -28.0933 F   0  0  0  0  0  0  0  0  0  0  0  0
  -20.2962   -5.8352  -29.9168 H   0  0  0  0  0  0  0  0  0  0  0  0
  -20.7218   -6.6065  -26.9872 H   0  0  0  0  0  0  0  0  0  0  0  0
  -19.2845   -5.9566  -27.7657 H   0  0  0  0  0  0  0  0  0  0  0  0
  -23.9993   -2.9193  -26.2375 H   0  0  0  0  0  0  0  0  0  0  0  0
  -22.8076   -1.7798  -25.6608 H   0  0  0  0  0  0  0  0  0  0  0  0
  -21.7001   -5.3469  -24.9131 H   0  0  0  0  0  0  0  0  0  0  0  0
  -23.9868   -2.3012  -23.7135 H   0  0  0  0  0  0  0  0  0  0  0  0
  -20.7320   -2.4888  -24.3223 H   0  0  0  0  0  0  0  0  0  0  0  0
  -19.0770   -9.7204  -35.4277 H   0  0  0  0  0  0  0  0  0  0  0  0
  -20.8059   -9.3068  -35.5331 H   0  0  0  0  0  0  0  0  0  0  0  0
  -19.7414   -8.9599  -36.8947 H   0  0  0  0  0  0  0  0  0  0  0  0
  -23.8754   -5.2732  -24.4510 H   0  0  0  0  0  0  0  0  0  0  0  0
  -25.2755   -4.1920  -24.5858 H   0  0  0  0  0  0  0  0  0  0  0  0
  -24.5906   -4.5619  -22.9914 H   0  0  0  0  0  0  0  0  0  0  0  0
  -20.2645   -4.9550  -22.6043 H   0  0  0  0  0  0  0  0  0  0  0  0
  -20.0661   -3.2669  -22.0962 H   0  0  0  0  0  0  0  0  0  0  0  0
  -19.0145   -3.9440  -23.3545 H   0  0  0  0  0  0  0  0  0  0  0  0
  -20.0516   -6.0431  -31.7196 H   0  0  0  0  0  0  0  0  0  0  0  0
  -19.4473   -4.5068  -32.3611 H   0  0  0  0  0  0  0  0  0  0  0  0
  -17.2443   -6.5415  -24.5807 H   0  0  0  0  0  0  0  0  0  0  0  0
  1  2  2  0  0  0  0
  1  3  1  0  0  0  0
  2  5  1  0  0  0  0
  2  7  1  0  0  0  0
  3  4  2  0  0  0  0
  3 13  1  0  0  0  0
  4  6  1  0  0  0  0
  4 28  1  0  0  0  0
  5  6  2  0  0  0  0
  5 32  1  0  0  0  0
  6 36  1  0  0  0  0
  7 23  2  0  0  0  0
  7 35  1  0  0  0  0
  8 19  1  0  0  0  0
  8 24  2  0  0  0  0
  8 33  1  0  0  0  0
  9 22  1  0  0  0  0
  9 25  2  0  0  0  0
  9 33  1  0  0  0  0
 10 18  1  0  0  0  0
 10 26  1  0  0  0  0
 10 29  2  0  0  0  0
 11 18  1  0  0  0  0
 11 27  1  0  0  0  0
 11 30  2  0  0  0  0
 12 26  1  0  0  0  0
 12 27  1  0  0  0  0
 12 31  2  0  0  0  0
 13 18  1  0  0  0  0
 14 16  1  0  0  0  0
 14 28  1  0  0  0  0
 15 17  1  0  0  0  0
 15 18  1  0  0  0  0
 15 28  1  0  0  0  0
 16 20  1  0  0  0  0
 16 34  1  0  0  0  0
 17 21  1  0  0  0  0
 17 34  1  0  0  0  0
 22 35  1  0  0  0  0
 23 32  1  0  0  0  0
 24 25  1  0  0  0  0
  1 37  1  0  0  0  0
 13 38  1  0  0  0  0
 13 39  1  0  0  0  0
 14 40  1  0  0  0  0
 14 41  1  0  0  0  0
 15 42  1  0  0  0  0
 16 43  1  0  0  0  0
 17 44  1  0  0  0  0
 19 45  1  0  0  0  0
 19 46  1  0  0  0  0
 19 47  1  0  0  0  0
 20 48  1  0  0  0  0
 20 49  1  0  0  0  0
 20 50  1  0  0  0  0
 21 51  1  0  0  0  0
 21 52  1  0  0  0  0
 21 53  1  0  0  0  0
 22 54  1  0  0  0  0
 22 55  1  0  0  0  0
 27 56  1  0  0  0  0
M  CHG  1  26  -1
M  END
> <SMILES>
C[C@@H]1CN2[C@H]([C@H](C)O1)C1(Cc3cc4c(noc4c(c32)F)OCc2nnc(o2)C)C(=O)NC(=O)NC1=O

> <FORMATTED_ID>
H3D-008195

> <MOLFORMULA>
C22H21FN6O7

> <Exact Mass>
500.15

> <XLogP>
1.36

> <TPSA_NOPS>
162.5

> <s_m_source_file>
ligprep_h3d.sdf

> <i_m_source_file_index>
1176

> <i_lp_mmshare_version>
55123

> <i_f3d_flags>
0

> <s_epik_input>
Tz1DMVtOSF1DKD1PKVtOSF1DKD1PKUMxMltDQEBIXTNOKFtDSDJdW0NAQEhdKFtDSDNdKU9bQ0BIXTNbQ0gzXSljNGMoW0NIMl0yKVtjSF1jNWMoYzRGKW9uYzVPW0NIMl1jNm5uYyhvNilbQ0gzXQ==

> <s_epik_cmdline>
J2VwaWtfcHl0aG9uJywgJy1waHQnLCAnMC41JywgJy1waCcsICc3LjUnLCAnLXRuJywgJzgnLCAnLW1hJywgJzUwMCcsICctaW1hZScsICc8aW5maWxlLm1hZT4nLCAnLW9tYWUnLCAnPG91dGZpbGUubWFlPic=

> <r_lp_tautomer_probability>
1

> <r_epik_Ionization_Penalty>
0.455388

> <r_epik_Ionization_Penalty_Charging>
0.455373

> <r_epik_Ionization_Penalty_Neutral>
1.46173e-05

> <r_epik_State_Penalty>
0.458483

> <r_epik_Charging_Adjusted_Penalty>
0.913857

> <i_epik_Tot_Q>
-1

> <i_epik_Tot_abs_Q>
1

> <s_lp_Force_Field>
S-OPLS

> <r_lp_Energy>
51.6772

> <b_lp_Chiralities_Consistent>
1

> <s_lp_Variant>
ligprep_h3d.sdf:1176-2

> <ROCS_ShapeQuery>
_7L13

> <ROCS_TanimotoCombo>
0.785 

> <ROCS_ShapeTanimoto>
0.668 

> <ROCS_ColorTanimoto>
0.117 

> <ROCS_RefTversky>
0.814 

> <ROCS_RefColorTversky>
0.293 

> <ROCS_RefTverskyCombo>
1.107 

> <ROCS_FitTversky>
0.788 

> <ROCS_FitColorTversky>
0.163 

> <ROCS_FitTverskyCombo>
0.951 

> <ROCS_ColorScore>
-2.761

> <ROCS_Overlap>
1354.534

> <ROCS_Rank>
85                  

$$$$
ligprep_h3d.sdf:2411_376
  -OEChem-08212117123D

104108  0     1  0  0  0  0  0999 V2000
  -25.7061   -4.0981  -24.3998 C   0  0  0  0  0  0  0  0  0  0  0  0
  -23.2966   -4.0299  -24.2359 C   0  0  0  0  0  0  0  0  0  0  0  0
  -25.7685   -4.7941  -23.1926 C   0  0  0  0  0  0  0  0  0  0  0  0
  -23.3591   -4.7259  -23.0287 C   0  0  0  0  0  0  0  0  0  0  0  0
  -24.4701   -3.7161  -24.9215 C   0  0  0  0  0  0  0  0  0  0  0  0
  -24.5951   -5.1079  -22.5070 C   0  0  0  0  0  0  0  0  0  0  0  0
  -22.1410   -4.0619  -30.0385 C   0  0  0  0  0  0  0  0  0  0  0  0
  -19.4077   -5.6653  -26.1395 C   0  0  0  0  0  0  0  0  0  0  0  0
  -21.8029   -4.0719  -28.7438 C   0  0  0  0  0  0  0  0  0  0  0  0
  -18.0881   -5.4038  -26.0798 C   0  0  0  0  0  0  0  0  0  0  0  0
  -22.4964   -3.1459  -27.7953 C   0  0  0  0  0  0  0  0  0  0  0  0
  -23.9131   -0.9000  -30.3906 C   0  0  0  0  0  0  0  0  0  0  0  0
  -20.2339   -4.2683  -36.0406 C   0  0  0  0  0  0  0  0  0  0  0  0
  -19.0677   -8.5466  -36.1703 C   0  0  0  0  0  0  0  0  0  0  0  0
  -21.2446   -3.8768  -34.9486 C   0  0  0  0  0  0  0  0  0  0  0  0
  -19.6070   -7.8940  -34.8852 C   0  0  0  0  0  0  0  0  0  0  0  0
  -20.1969   -5.6067  -30.9678 C   0  0  0  0  0  0  0  0  0  0  0  0
  -22.9976   -3.3613  -32.1880 C   0  0  0  0  0  0  0  0  0  0  0  0
  -21.5538   -4.9252  -31.1282 C   0  0  2  0  0  0  0  0  0  0  0  0
  -23.1458   -3.1181  -30.6696 C   0  0  2  0  0  0  0  0  0  0  0  0
  -20.0856   -5.7831  -36.1437 C   0  0  1  0  0  0  0  0  0  0  0  0
  -19.9730   -5.6251  -33.5404 C   0  0  1  0  0  0  0  0  0  0  0  0
  -19.4271   -6.3368  -37.4366 C   0  0  1  0  0  0  0  0  0  0  0  0
  -19.5677   -7.8813  -37.4548 C   0  0  2  0  0  0  0  0  0  0  0  0
  -19.8740   -6.4472  -32.2200 C   0  0  2  0  0  0  0  0  0  0  0  0
  -19.4149   -6.3559  -34.8476 C   0  0  1  0  0  0  0  0  0  0  0  0
  -21.3347   -4.8297  -33.7047 C   0  0  1  0  0  0  0  0  0  0  0  0
  -21.5839   -3.9820  -32.3639 C   0  0  1  0  0  0  0  0  0  0  0  0
  -17.1365   -6.4255  -25.5153 C   0  0  0  0  0  0  0  0  0  0  0  0
  -17.4289   -4.1325  -26.5342 C   0  0  0  0  0  0  0  0  0  0  0  0
  -23.4533    0.4879  -30.0610 C   0  0  0  0  0  0  0  0  0  0  0  0
  -20.0229   -5.7298  -38.7137 C   0  0  0  0  0  0  0  0  0  0  0  0
  -17.8723   -6.0844  -34.8328 C   0  0  0  0  0  0  0  0  0  0  0  0
  -22.5258   -5.8069  -33.9481 C   0  0  0  0  0  0  0  0  0  0  0  0
  -20.5410   -2.8173  -32.2044 C   0  0  0  0  0  0  0  0  0  0  0  0
  -24.4025   -2.9676  -26.2213 C   0  0  0  0  0  0  0  0  0  0  0  0
  -20.5063   -4.7860  -26.6709 C   0  0  0  0  0  0  0  0  0  0  0  0
  -20.6814   -4.9161  -28.1903 C   0  0  0  0  0  0  0  0  0  0  0  0
  -24.5912   -7.5932  -21.5436 N   0  0  0  0  0  0  0  0  0  0  0  0
  -23.6336   -3.6795  -27.2157 N   0  0  0  0  0  0  0  0  0  0  0  0
  -22.0207   -2.0416  -27.5429 O   0  0  0  0  0  0  0  0  0  0  0  0
  -25.0745   -1.1969  -30.6357 O   0  0  0  0  0  0  0  0  0  0  0  0
  -23.4699   -5.6789  -20.2308 O   0  0  0  0  0  0  0  0  0  0  0  0
  -25.9827   -5.7519  -20.3989 O   0  0  0  0  0  0  0  0  0  0  0  0
  -20.9350   -8.2647  -37.6218 O   0  0  0  0  0  0  0  0  0  0  0  0
  -20.7543   -7.5671  -32.2526 O   0  0  0  0  0  0  0  0  0  0  0  0
  -22.8497   -1.7614  -30.3732 O   0  0  0  0  0  0  0  0  0  0  0  0
  -24.6731   -5.9771  -20.9949 S   0  0  0  0  0  0  0  0  0  0  0  0
  -26.6256   -3.8582  -24.9271 H   0  0  0  0  0  0  0  0  0  0  0  0
  -22.3292   -3.7367  -24.6350 H   0  0  0  0  0  0  0  0  0  0  0  0
  -26.7366   -5.0875  -22.7953 H   0  0  0  0  0  0  0  0  0  0  0  0
  -22.4386   -4.9656  -22.5030 H   0  0  0  0  0  0  0  0  0  0  0  0
  -19.7533   -6.6308  -25.7710 H   0  0  0  0  0  0  0  0  0  0  0  0
  -20.5864   -3.8307  -36.9800 H   0  0  0  0  0  0  0  0  0  0  0  0
  -19.2660   -3.7982  -35.8352 H   0  0  0  0  0  0  0  0  0  0  0  0
  -17.9724   -8.5376  -36.1586 H   0  0  0  0  0  0  0  0  0  0  0  0
  -19.3652   -9.6029  -36.1638 H   0  0  0  0  0  0  0  0  0  0  0  0
  -21.0050   -2.8495  -34.6663 H   0  0  0  0  0  0  0  0  0  0  0  0
  -22.2360   -3.7976  -35.4148 H   0  0  0  0  0  0  0  0  0  0  0  0
  -20.6713   -8.1395  -34.7957 H   0  0  0  0  0  0  0  0  0  0  0  0
  -19.0987   -8.3692  -34.0382 H   0  0  0  0  0  0  0  0  0  0  0  0
  -19.4043   -4.8699  -30.7969 H   0  0  0  0  0  0  0  0  0  0  0  0
  -20.2210   -6.2616  -30.0882 H   0  0  0  0  0  0  0  0  0  0  0  0
  -23.7795   -4.0646  -32.4914 H   0  0  0  0  0  0  0  0  0  0  0  0
  -23.1242   -2.4471  -32.7776 H   0  0  0  0  0  0  0  0  0  0  0  0
  -22.2955   -5.7256  -31.2420 H   0  0  0  0  0  0  0  0  0  0  0  0
  -24.1669   -3.3382  -30.3450 H   0  0  0  0  0  0  0  0  0  0  0  0
  -21.1116   -6.1587  -36.2018 H   0  0  0  0  0  0  0  0  0  0  0  0
  -19.2383   -4.8277  -33.3797 H   0  0  0  0  0  0  0  0  0  0  0  0
  -18.3616   -6.0841  -37.4479 H   0  0  0  0  0  0  0  0  0  0  0  0
  -19.0121   -8.2972  -38.3040 H   0  0  0  0  0  0  0  0  0  0  0  0
  -18.8574   -6.8418  -32.1120 H   0  0  0  0  0  0  0  0  0  0  0  0
  -16.7748   -7.0862  -26.3101 H   0  0  0  0  0  0  0  0  0  0  0  0
  -16.2619   -5.9662  -25.0425 H   0  0  0  0  0  0  0  0  0  0  0  0
  -17.6407   -7.0351  -24.7582 H   0  0  0  0  0  0  0  0  0  0  0  0
  -17.3537   -3.3724  -25.7547 H   0  0  0  0  0  0  0  0  0  0  0  0
  -17.9915   -3.6953  -27.3659 H   0  0  0  0  0  0  0  0  0  0  0  0
  -16.4108   -4.3408  -26.8804 H   0  0  0  0  0  0  0  0  0  0  0  0
  -23.5035    0.6485  -28.9813 H   0  0  0  0  0  0  0  0  0  0  0  0
  -24.0716    1.2185  -30.5886 H   0  0  0  0  0  0  0  0  0  0  0  0
  -22.4157    0.6125  -30.3842 H   0  0  0  0  0  0  0  0  0  0  0  0
  -21.0858   -5.9498  -38.7573 H   0  0  0  0  0  0  0  0  0  0  0  0
  -19.5287   -6.1567  -39.5819 H   0  0  0  0  0  0  0  0  0  0  0  0
  -19.8757   -4.6535  -38.7056 H   0  0  0  0  0  0  0  0  0  0  0  0
  -17.7250   -5.0187  -34.8067 H   0  0  0  0  0  0  0  0  0  0  0  0
  -17.4538   -6.5103  -35.7281 H   0  0  0  0  0  0  0  0  0  0  0  0
  -17.4633   -6.5527  -33.9544 H   0  0  0  0  0  0  0  0  0  0  0  0
  -22.5980   -6.4675  -33.0992 H   0  0  0  0  0  0  0  0  0  0  0  0
  -22.3252   -6.3640  -34.8491 H   0  0  0  0  0  0  0  0  0  0  0  0
  -23.4251   -5.2215  -34.0537 H   0  0  0  0  0  0  0  0  0  0  0  0
  -19.5606   -3.2403  -32.3250 H   0  0  0  0  0  0  0  0  0  0  0  0
  -20.6675   -2.4003  -31.2221 H   0  0  0  0  0  0  0  0  0  0  0  0
  -20.7481   -2.0891  -32.9670 H   0  0  0  0  0  0  0  0  0  0  0  0
  -25.4075   -2.8041  -26.6254 H   0  0  0  0  0  0  0  0  0  0  0  0
  -23.9429   -1.9831  -26.0844 H   0  0  0  0  0  0  0  0  0  0  0  0
  -21.4611   -4.9575  -26.1662 H   0  0  0  0  0  0  0  0  0  0  0  0
  -20.2362   -3.7470  -26.4425 H   0  0  0  0  0  0  0  0  0  0  0  0
  -19.7428   -4.6282  -28.6805 H   0  0  0  0  0  0  0  0  0  0  0  0
  -20.8381   -5.9722  -28.4473 H   0  0  0  0  0  0  0  0  0  0  0  0
  -23.7253   -8.1179  -21.3697 H   0  0  0  0  0  0  0  0  0  0  0  0
  -25.4423   -8.1656  -21.4857 H   0  0  0  0  0  0  0  0  0  0  0  0
  -23.9390   -4.6056  -27.4996 H   0  0  0  0  0  0  0  0  0  0  0  0
  -20.9402   -9.2310  -37.6860 H   0  0  0  0  0  0  0  0  0  0  0  0
  -20.5928   -8.0696  -31.4390 H   0  0  0  0  0  0  0  0  0  0  0  0
  1  3  1  0  0  0  0
  1  5  2  0  0  0  0
  2  4  2  0  0  0  0
  2  5  1  0  0  0  0
  3  6  2  0  0  0  0
  4  6  1  0  0  0  0
  5 36  1  0  0  0  0
  6 48  1  0  0  0  0
  7  9  2  0  0  0  0
  7 19  1  0  0  0  0
  7 20  1  0  0  0  0
  8 10  2  0  0  0  0
  8 37  1  0  0  0  0
  9 11  1  0  0  0  0
  9 38  1  0  0  0  0
 10 29  1  0  0  0  0
 10 30  1  0  0  0  0
 11 40  1  0  0  0  0
 11 41  2  0  0  0  0
 12 31  1  0  0  0  0
 12 42  2  0  0  0  0
 12 47  1  0  0  0  0
 13 15  1  0  0  0  0
 13 21  1  0  0  0  0
 14 16  1  0  0  0  0
 14 24  1  0  0  0  0
 15 27  1  0  0  0  0
 16 26  1  0  0  0  0
 17 19  1  0  0  0  0
 17 25  1  0  0  0  0
 18 20  1  0  0  0  0
 18 28  1  0  0  0  0
 19 28  1  0  0  0  0
 20 47  1  0  0  0  0
 21 23  1  0  0  0  0
 21 26  1  0  0  0  0
 22 25  1  0  0  0  0
 22 26  1  0  0  0  0
 22 27  1  0  0  0  0
 23 24  1  0  0  0  0
 23 32  1  0  0  0  0
 24 45  1  0  0  0  0
 25 46  1  0  0  0  0
 26 33  1  0  0  0  0
 27 28  1  0  0  0  0
 27 34  1  0  0  0  0
 28 35  1  0  0  0  0
 36 40  1  0  0  0  0
 37 38  1  0  0  0  0
 39 48  1  0  0  0  0
 43 48  2  0  0  0  0
 44 48  2  0  0  0  0
  1 49  1  0  0  0  0
  2 50  1  0  0  0  0
  3 51  1  0  0  0  0
  4 52  1  0  0  0  0
  8 53  1  0  0  0  0
 13 54  1  0  0  0  0
 13 55  1  0  0  0  0
 14 56  1  0  0  0  0
 14 57  1  0  0  0  0
 15 58  1  0  0  0  0
 15 59  1  0  0  0  0
 16 60  1  0  0  0  0
 16 61  1  0  0  0  0
 17 62  1  0  0  0  0
 17 63  1  0  0  0  0
 18 64  1  0  0  0  0
 18 65  1  0  0  0  0
 19 66  1  0  0  0  0
 20 67  1  0  0  0  0
 21 68  1  0  0  0  0
 22 69  1  0  0  0  0
 23 70  1  0  0  0  0
 24 71  1  0  0  0  0
 25 72  1  0  0  0  0
 29 73  1  0  0  0  0
 29 74  1  0  0  0  0
 29 75  1  0  0  0  0
 30 76  1  0  0  0  0
 30 77  1  0  0  0  0
 30 78  1  0  0  0  0
 31 79  1  0  0  0  0
 31 80  1  0  0  0  0
 31 81  1  0  0  0  0
 32 82  1  0  0  0  0
 32 83  1  0  0  0  0
 32 84  1  0  0  0  0
 33 85  1  0  0  0  0
 33 86  1  0  0  0  0
 33 87  1  0  0  0  0
 34 88  1  0  0  0  0
 34 89  1  0  0  0  0
 34 90  1  0  0  0  0
 35 91  1  0  0  0  0
 35 92  1  0  0  0  0
 35 93  1  0  0  0  0
 36 94  1  0  0  0  0
 36 95  1  0  0  0  0
 37 96  1  0  0  0  0
 37 97  1  0  0  0  0
 38 98  1  0  0  0  0
 38 99  1  0  0  0  0
 39100  1  0  0  0  0
 39101  1  0  0  0  0
 40102  1  0  0  0  0
 45103  1  0  0  0  0
 46104  1  0  0  0  0
M  END
> <SMILES>
C[C@@H]1[C@H](O)CC[C@@]2(C)[C@H]1CC[C@@]1(C)[C@H]2[C@H](O)C[C@H]2/C(=C(\CCC=C(C)C)C(=O)NCc3ccc(cc3)S(=O)(=O)N)[C@H](C[C@@]21C)OC(=O)C

> <FORMATTED_ID>
H3D-005616

> <MOLFORMULA>
C38H56N2O7S

> <Exact Mass>
684.38

> <XLogP>
5.63

> <TPSA_NOPS>
164.4

> <s_m_source_file>
ligprep_h3d.sdf

> <i_m_source_file_index>
2411

> <i_lp_mmshare_version>
55123

> <i_f3d_flags>
0

> <s_epik_input>
W0NIMl0xW0NIMl1bQ0BASF0oW09IXSlbQ0BASF0oW0NIM10pW0NAQEhdKFtDQF0xMltDSDNdKVtDSDJdW0NIMl1bQ0BAXTMoW0NIM10pW0NASF0yW0NASF0oW09IXSlbQ0gyXVtDQEBIXTRbQ0BdMyhbQ0gzXSlbQ0gyXVtDQEhdKE9DKD1PKVtDSDNdKUNcND1DKFxbQ0gyXVtDSDJdW0NIXT1DKFtDSDNdKVtDSDNdKUMoPU8pW05IXVtDSDJdYzVbY0hdW2NIXWMoW2NIXVtjSF01KVMoPU8pKD1PKVtOSDJd

> <s_epik_cmdline>
J2VwaWtfcHl0aG9uJywgJy1waHQnLCAnMC41JywgJy1waCcsICc3LjUnLCAnLXRuJywgJzgnLCAnLW1hJywgJzUwMCcsICctaW1hZScsICc8aW5maWxlLm1hZT4nLCAnLW9tYWUnLCAnPG91dGZpbGUubWFlPic=

> <r_lp_tautomer_probability>
1

> <r_epik_Ionization_Penalty>
0.00166978

> <r_epik_Ionization_Penalty_Charging>
0

> <r_epik_Ionization_Penalty_Neutral>
0.00166978

> <r_epik_State_Penalty>
-0

> <r_epik_Charging_Adjusted_Penalty>
0

> <i_epik_Tot_Q>
0

> <i_epik_Tot_abs_Q>
0

> <s_epik_Chemistry_Notes>
This compound has an ester and may undergo hydrolysis at high or low pH.

> <s_lp_Force_Field>
S-OPLS

> <r_lp_Energy>
75.7706

> <b_lp_Chiralities_Consistent>
1

> <s_lp_Variant>
ligprep_h3d.sdf:2411-1

> <ROCS_ShapeQuery>
_7L13

> <ROCS_TanimotoCombo>
0.654 

> <ROCS_ShapeTanimoto>
0.575 

> <ROCS_ColorTanimoto>
0.079 

> <ROCS_RefTversky>
0.814 

> <ROCS_RefColorTversky>
0.202 

> <ROCS_RefTverskyCombo>
1.016 

> <ROCS_FitTversky>
0.663 

> <ROCS_FitColorTversky>
0.114 

> <ROCS_FitTverskyCombo>
0.777 

> <ROCS_ColorScore>
-1.895

> <ROCS_Overlap>
1369.192

> <ROCS_Rank>
86                  

$$$$
ligprep_h3d.sdf:2410_478
  -OEChem-08212117123D

100104  0     1  0  0  0  0  0999 V2000
  -25.2363   -4.3837  -25.0183 C   0  0  0  0  0  0  0  0  0  0  0  0
  -23.4014   -3.8501  -23.5400 C   0  0  0  0  0  0  0  0  0  0  0  0
  -25.7765   -5.2238  -24.0446 C   0  0  0  0  0  0  0  0  0  0  0  0
  -23.9416   -4.6901  -22.5662 C   0  0  0  0  0  0  0  0  0  0  0  0
  -24.0487   -3.6969  -24.7660 C   0  0  0  0  0  0  0  0  0  0  0  0
  -25.1292   -5.3769  -22.8186 C   0  0  0  0  0  0  0  0  0  0  0  0
  -21.6914   -3.9895  -29.8505 C   0  0  0  0  0  0  0  0  0  0  0  0
  -18.5605   -5.6111  -26.2710 C   0  0  0  0  0  0  0  0  0  0  0  0
  -21.2052   -3.9917  -28.6038 C   0  0  0  0  0  0  0  0  0  0  0  0
  -17.3329   -5.2601  -25.8431 C   0  0  0  0  0  0  0  0  0  0  0  0
  -21.7620   -3.0371  -27.5955 C   0  0  0  0  0  0  0  0  0  0  0  0
  -23.4190   -0.7895  -30.0428 C   0  0  0  0  0  0  0  0  0  0  0  0
  -20.5011   -4.3177  -36.0296 C   0  0  0  0  0  0  0  0  0  0  0  0
  -19.4568   -8.6249  -36.2284 C   0  0  0  0  0  0  0  0  0  0  0  0
  -21.3685   -3.8879  -34.8337 C   0  0  0  0  0  0  0  0  0  0  0  0
  -19.8277   -7.9432  -34.8995 C   0  0  0  0  0  0  0  0  0  0  0  0
  -19.9048   -5.5933  -30.9755 C   0  0  0  0  0  0  0  0  0  0  0  0
  -22.7759   -3.2949  -31.8965 C   0  0  0  0  0  0  0  0  0  0  0  0
  -21.2550   -4.8806  -30.9878 C   0  0  2  0  0  0  0  0  0  0  0  0
  -22.7408   -3.0292  -30.3751 C   0  0  2  0  0  0  0  0  0  0  0  0
  -20.4007   -5.8369  -36.1261 C   0  0  1  0  0  0  0  0  0  0  0  0
  -19.9822   -5.6493  -33.5561 C   0  0  1  0  0  0  0  0  0  0  0  0
  -19.9101   -6.4228  -37.4780 C   0  0  1  0  0  0  0  0  0  0  0  0
  -20.0875   -7.9635  -37.4563 C   0  0  2  0  0  0  0  0  0  0  0  0
  -19.7493   -6.4570  -32.2438 C   0  0  2  0  0  0  0  0  0  0  0  0
  -19.5972   -6.4099  -34.9079 C   0  0  1  0  0  0  0  0  0  0  0  0
  -21.3351   -4.8226  -33.5734 C   0  0  1  0  0  0  0  0  0  0  0  0
  -21.4070   -3.9524  -32.2258 C   0  0  1  0  0  0  0  0  0  0  0  0
  -16.3242   -6.3178  -25.4802 C   0  0  0  0  0  0  0  0  0  0  0  0
  -16.8372   -3.8519  -25.6738 C   0  0  0  0  0  0  0  0  0  0  0  0
  -23.0499    0.3364  -29.1251 C   0  0  0  0  0  0  0  0  0  0  0  0
  -20.6363   -5.8173  -38.6864 C   0  0  0  0  0  0  0  0  0  0  0  0
  -18.0575   -6.1764  -35.0764 C   0  0  0  0  0  0  0  0  0  0  0  0
  -22.5687   -5.7731  -33.6620 C   0  0  0  0  0  0  0  0  0  0  0  0
  -20.3261   -2.8119  -32.2062 C   0  0  0  0  0  0  0  0  0  0  0  0
  -23.4674   -2.7922  -25.8138 C   0  0  0  0  0  0  0  0  0  0  0  0
  -19.6930   -4.7116  -26.6848 C   0  0  0  0  0  0  0  0  0  0  0  0
  -20.0467   -4.8564  -28.1713 C   0  0  0  0  0  0  0  0  0  0  0  0
  -22.8361   -3.5352  -26.8797 N   0  0  0  0  0  0  0  0  0  0  0  0
  -21.2349   -1.9418  -27.4169 O   0  0  0  0  0  0  0  0  0  0  0  0
  -24.4969   -0.8822  -30.6145 O   0  0  0  0  0  0  0  0  0  0  0  0
  -25.6572   -6.1957  -21.8681 O   0  0  0  0  0  0  0  0  0  0  0  0
  -21.4734   -8.3151  -37.4576 O   0  0  0  0  0  0  0  0  0  0  0  0
  -20.6529   -7.5552  -32.1569 O   0  0  0  0  0  0  0  0  0  0  0  0
  -22.3810   -1.6766  -30.1357 O   0  0  0  0  0  0  0  0  0  0  0  0
  -25.7472   -4.2704  -25.9707 H   0  0  0  0  0  0  0  0  0  0  0  0
  -22.4755   -3.3189  -23.3347 H   0  0  0  0  0  0  0  0  0  0  0  0
  -26.7022   -5.7560  -24.2470 H   0  0  0  0  0  0  0  0  0  0  0  0
  -23.4329   -4.8049  -21.6132 H   0  0  0  0  0  0  0  0  0  0  0  0
  -18.7900   -6.6737  -26.3451 H   0  0  0  0  0  0  0  0  0  0  0  0
  -20.9504   -3.8834  -36.9283 H   0  0  0  0  0  0  0  0  0  0  0  0
  -19.5053   -3.8692  -35.9451 H   0  0  0  0  0  0  0  0  0  0  0  0
  -18.3676   -8.6426  -36.3441 H   0  0  0  0  0  0  0  0  0  0  0  0
  -19.7758   -9.6733  -36.1713 H   0  0  0  0  0  0  0  0  0  0  0  0
  -21.0741   -2.8633  -34.5969 H   0  0  0  0  0  0  0  0  0  0  0  0
  -22.4053   -3.7901  -35.1829 H   0  0  0  0  0  0  0  0  0  0  0  0
  -20.8797   -8.1612  -34.6833 H   0  0  0  0  0  0  0  0  0  0  0  0
  -19.2354   -8.4201  -34.1101 H   0  0  0  0  0  0  0  0  0  0  0  0
  -19.0809   -4.8741  -30.9090 H   0  0  0  0  0  0  0  0  0  0  0  0
  -19.8414   -6.2363  -30.0892 H   0  0  0  0  0  0  0  0  0  0  0  0
  -23.6039   -3.9824  -32.0964 H   0  0  0  0  0  0  0  0  0  0  0  0
  -22.9492   -2.3852  -32.4813 H   0  0  0  0  0  0  0  0  0  0  0  0
  -22.0232   -5.6638  -31.0024 H   0  0  0  0  0  0  0  0  0  0  0  0
  -23.7219   -3.2200  -29.9309 H   0  0  0  0  0  0  0  0  0  0  0  0
  -21.4349   -6.1878  -36.0589 H   0  0  0  0  0  0  0  0  0  0  0  0
  -19.2157   -4.8683  -33.4939 H   0  0  0  0  0  0  0  0  0  0  0  0
  -18.8476   -6.1966  -37.6168 H   0  0  0  0  0  0  0  0  0  0  0  0
  -19.6442   -8.4035  -38.3577 H   0  0  0  0  0  0  0  0  0  0  0  0
  -18.7363   -6.8752  -32.2484 H   0  0  0  0  0  0  0  0  0  0  0  0
  -15.7302   -6.5920  -26.3584 H   0  0  0  0  0  0  0  0  0  0  0  0
  -15.6300   -5.9843  -24.7016 H   0  0  0  0  0  0  0  0  0  0  0  0
  -16.8322   -7.2143  -25.1097 H   0  0  0  0  0  0  0  0  0  0  0  0
  -17.0213   -3.4365  -24.6815 H   0  0  0  0  0  0  0  0  0  0  0  0
  -17.3241   -3.1934  -26.4008 H   0  0  0  0  0  0  0  0  0  0  0  0
  -15.7560   -3.8117  -25.8444 H   0  0  0  0  0  0  0  0  0  0  0  0
  -23.3365    0.0886  -28.1001 H   0  0  0  0  0  0  0  0  0  0  0  0
  -23.5411    1.2568  -29.4509 H   0  0  0  0  0  0  0  0  0  0  0  0
  -21.9673    0.4901  -29.1569 H   0  0  0  0  0  0  0  0  0  0  0  0
  -21.7019   -6.0116  -38.6030 H   0  0  0  0  0  0  0  0  0  0  0  0
  -20.2566   -6.2670  -39.5995 H   0  0  0  0  0  0  0  0  0  0  0  0
  -20.4645   -4.7449  -38.7119 H   0  0  0  0  0  0  0  0  0  0  0  0
  -17.8836   -5.1144  -35.0838 H   0  0  0  0  0  0  0  0  0  0  0  0
  -17.7559   -6.6235  -36.0077 H   0  0  0  0  0  0  0  0  0  0  0  0
  -17.5598   -6.6436  -34.2444 H   0  0  0  0  0  0  0  0  0  0  0  0
  -22.5568   -6.4212  -32.8004 H   0  0  0  0  0  0  0  0  0  0  0  0
  -22.4872   -6.3463  -34.5715 H   0  0  0  0  0  0  0  0  0  0  0  0
  -23.4604   -5.1671  -33.6714 H   0  0  0  0  0  0  0  0  0  0  0  0
  -19.3764   -3.2604  -32.4333 H   0  0  0  0  0  0  0  0  0  0  0  0
  -20.3277   -2.3796  -31.2224 H   0  0  0  0  0  0  0  0  0  0  0  0
  -20.6037   -2.0884  -32.9506 H   0  0  0  0  0  0  0  0  0  0  0  0
  -24.2474   -2.1635  -26.2569 H   0  0  0  0  0  0  0  0  0  0  0  0
  -22.7162   -2.1226  -25.3819 H   0  0  0  0  0  0  0  0  0  0  0  0
  -20.5861   -4.8532  -26.0701 H   0  0  0  0  0  0  0  0  0  0  0  0
  -19.3742   -3.6768  -26.5051 H   0  0  0  0  0  0  0  0  0  0  0  0
  -19.1650   -4.5978  -28.7716 H   0  0  0  0  0  0  0  0  0  0  0  0
  -20.2565   -5.9113  -28.3924 H   0  0  0  0  0  0  0  0  0  0  0  0
  -23.1937   -4.4570  -27.1121 H   0  0  0  0  0  0  0  0  0  0  0  0
  -25.0961   -6.1974  -21.0762 H   0  0  0  0  0  0  0  0  0  0  0  0
  -21.5083   -9.2817  -37.5060 H   0  0  0  0  0  0  0  0  0  0  0  0
  -20.4094   -8.0514  -31.3599 H   0  0  0  0  0  0  0  0  0  0  0  0
  1  3  1  0  0  0  0
  1  5  2  0  0  0  0
  2  4  2  0  0  0  0
  2  5  1  0  0  0  0
  3  6  2  0  0  0  0
  4  6  1  0  0  0  0
  5 36  1  0  0  0  0
  6 42  1  0  0  0  0
  7  9  2  0  0  0  0
  7 19  1  0  0  0  0
  7 20  1  0  0  0  0
  8 10  2  0  0  0  0
  8 37  1  0  0  0  0
  9 11  1  0  0  0  0
  9 38  1  0  0  0  0
 10 29  1  0  0  0  0
 10 30  1  0  0  0  0
 11 39  1  0  0  0  0
 11 40  2  0  0  0  0
 12 31  1  0  0  0  0
 12 41  2  0  0  0  0
 12 45  1  0  0  0  0
 13 15  1  0  0  0  0
 13 21  1  0  0  0  0
 14 16  1  0  0  0  0
 14 24  1  0  0  0  0
 15 27  1  0  0  0  0
 16 26  1  0  0  0  0
 17 19  1  0  0  0  0
 17 25  1  0  0  0  0
 18 20  1  0  0  0  0
 18 28  1  0  0  0  0
 19 28  1  0  0  0  0
 20 45  1  0  0  0  0
 21 23  1  0  0  0  0
 21 26  1  0  0  0  0
 22 25  1  0  0  0  0
 22 26  1  0  0  0  0
 22 27  1  0  0  0  0
 23 24  1  0  0  0  0
 23 32  1  0  0  0  0
 24 43  1  0  0  0  0
 25 44  1  0  0  0  0
 26 33  1  0  0  0  0
 27 28  1  0  0  0  0
 27 34  1  0  0  0  0
 28 35  1  0  0  0  0
 36 39  1  0  0  0  0
 37 38  1  0  0  0  0
  1 46  1  0  0  0  0
  2 47  1  0  0  0  0
  3 48  1  0  0  0  0
  4 49  1  0  0  0  0
  8 50  1  0  0  0  0
 13 51  1  0  0  0  0
 13 52  1  0  0  0  0
 14 53  1  0  0  0  0
 14 54  1  0  0  0  0
 15 55  1  0  0  0  0
 15 56  1  0  0  0  0
 16 57  1  0  0  0  0
 16 58  1  0  0  0  0
 17 59  1  0  0  0  0
 17 60  1  0  0  0  0
 18 61  1  0  0  0  0
 18 62  1  0  0  0  0
 19 63  1  0  0  0  0
 20 64  1  0  0  0  0
 21 65  1  0  0  0  0
 22 66  1  0  0  0  0
 23 67  1  0  0  0  0
 24 68  1  0  0  0  0
 25 69  1  0  0  0  0
 29 70  1  0  0  0  0
 29 71  1  0  0  0  0
 29 72  1  0  0  0  0
 30 73  1  0  0  0  0
 30 74  1  0  0  0  0
 30 75  1  0  0  0  0
 31 76  1  0  0  0  0
 31 77  1  0  0  0  0
 31 78  1  0  0  0  0
 32 79  1  0  0  0  0
 32 80  1  0  0  0  0
 32 81  1  0  0  0  0
 33 82  1  0  0  0  0
 33 83  1  0  0  0  0
 33 84  1  0  0  0  0
 34 85  1  0  0  0  0
 34 86  1  0  0  0  0
 34 87  1  0  0  0  0
 35 88  1  0  0  0  0
 35 89  1  0  0  0  0
 35 90  1  0  0  0  0
 36 91  1  0  0  0  0
 36 92  1  0  0  0  0
 37 93  1  0  0  0  0
 37 94  1  0  0  0  0
 38 95  1  0  0  0  0
 38 96  1  0  0  0  0
 39 97  1  0  0  0  0
 42 98  1  0  0  0  0
 43 99  1  0  0  0  0
 44100  1  0  0  0  0
M  END
> <SMILES>
C[C@@H]1[C@H](O)CC[C@@]2(C)[C@H]1CC[C@@]1(C)[C@H]2[C@H](O)C[C@H]2/C(=C(\CCC=C(C)C)C(=O)NCc3ccc(cc3)O)[C@H](C[C@@]21C)OC(=O)C

> <FORMATTED_ID>
H3D-005615

> <MOLFORMULA>
C38H55NO6

> <Exact Mass>
621.4

> <XLogP>
6.67

> <TPSA_NOPS>
116.1

> <s_m_source_file>
ligprep_h3d.sdf

> <i_m_source_file_index>
2410

> <i_lp_mmshare_version>
55123

> <i_f3d_flags>
0

> <s_epik_input>
W0NIMl0xW0NIMl1bQ0BASF0oW09IXSlbQ0BASF0oW0NIM10pW0NAQEhdKFtDQF0xMltDSDNdKVtDSDJdW0NIMl1bQ0BAXTMoW0NIM10pW0NASF0yW0NASF0oW09IXSlbQ0gyXVtDQEBIXTRbQ0BdMyhbQ0gzXSlbQ0gyXVtDQEhdKE9DKD1PKVtDSDNdKUNcND1DKFxbQ0gyXVtDSDJdW0NIXT1DKFtDSDNdKVtDSDNdKUMoPU8pW05IXVtDSDJdYzVbY0hdW2NIXWMoW09IXSlbY0hdW2NIXTU=

> <s_epik_cmdline>
J2VwaWtfcHl0aG9uJywgJy1waHQnLCAnMC41JywgJy1waCcsICc3LjUnLCAnLXRuJywgJzgnLCAnLW1hJywgJzUwMCcsICctaW1hZScsICc8aW5maWxlLm1hZT4nLCAnLW9tYWUnLCAnPG91dGZpbGUubWFlPic=

> <r_lp_tautomer_probability>
1

> <r_epik_Ionization_Penalty>
0.00241884

> <r_epik_Ionization_Penalty_Charging>
0

> <r_epik_Ionization_Penalty_Neutral>
0.00241884

> <r_epik_State_Penalty>
-0

> <r_epik_Charging_Adjusted_Penalty>
0

> <i_epik_Tot_Q>
0

> <i_epik_Tot_abs_Q>
0

> <s_epik_Chemistry_Notes>
This compound has an ester and may undergo hydrolysis at high or low pH.

> <s_lp_Force_Field>
S-OPLS

> <r_lp_Energy>
80.8002

> <b_lp_Chiralities_Consistent>
1

> <s_lp_Variant>
ligprep_h3d.sdf:2410-1

> <ROCS_ShapeQuery>
_7L13

> <ROCS_TanimotoCombo>
0.703 

> <ROCS_ShapeTanimoto>
0.600 

> <ROCS_ColorTanimoto>
0.102 

> <ROCS_RefTversky>
0.814 

> <ROCS_RefColorTversky>
0.249 

> <ROCS_RefTverskyCombo>
1.063 

> <ROCS_FitTversky>
0.696 

> <ROCS_FitColorTversky>
0.148 

> <ROCS_FitTverskyCombo>
0.844 

> <ROCS_ColorScore>
-2.324

> <ROCS_Overlap>
1364.491

> <ROCS_Rank>
87                  

$$$$
ligprep_h3d.sdf:2407_944
  -OEChem-08212117123D

102106  0     1  0  0  0  0  0999 V2000
  -25.7892   -5.2447  -24.3103 C   0  0  0  0  0  0  0  0  0  0  0  0
  -24.0732   -4.5499  -22.7579 C   0  0  0  0  0  0  0  0  0  0  0  0
  -25.2433   -4.4114  -25.2866 C   0  0  0  0  0  0  0  0  0  0  0  0
  -23.5273   -3.7167  -23.7343 C   0  0  0  0  0  0  0  0  0  0  0  0
  -25.2042   -5.3139  -23.0459 C   0  0  0  0  0  0  0  0  0  0  0  0
  -24.1124   -3.6475  -24.9987 C   0  0  0  0  0  0  0  0  0  0  0  0
  -21.3512   -4.2249  -29.5511 C   0  0  0  0  0  0  0  0  0  0  0  0
  -18.1449   -5.7539  -25.9977 C   0  0  0  0  0  0  0  0  0  0  0  0
  -20.8593   -4.2178  -28.3067 C   0  0  0  0  0  0  0  0  0  0  0  0
  -16.9292   -5.3605  -25.5729 C   0  0  0  0  0  0  0  0  0  0  0  0
  -21.4463   -3.2917  -27.2890 C   0  0  0  0  0  0  0  0  0  0  0  0
  -23.1976   -1.0902  -29.7124 C   0  0  0  0  0  0  0  0  0  0  0  0
  -20.1794   -4.4651  -35.7377 C   0  0  0  0  0  0  0  0  0  0  0  0
  -18.9765   -8.7288  -35.9724 C   0  0  0  0  0  0  0  0  0  0  0  0
  -21.0564   -4.0762  -34.5349 C   0  0  0  0  0  0  0  0  0  0  0  0
  -19.3661   -8.0708  -34.6370 C   0  0  0  0  0  0  0  0  0  0  0  0
  -19.5116   -5.7531  -30.6957 C   0  0  0  0  0  0  0  0  0  0  0  0
  -22.4707   -3.5568  -31.5870 C   0  0  0  0  0  0  0  0  0  0  0  0
  -20.8875   -5.0911  -30.6967 C   0  0  2  0  0  0  0  0  0  0  0  0
  -22.4381   -3.3007  -30.0639 C   0  0  2  0  0  0  0  0  0  0  0  0
  -20.0230   -5.9787  -35.8457 C   0  0  1  0  0  0  0  0  0  0  0  0
  -19.5994   -5.7937  -33.2763 C   0  0  1  0  0  0  0  0  0  0  0  0
  -19.5175   -6.5364  -37.2040 C   0  0  1  0  0  0  0  0  0  0  0  0
  -19.6373   -8.0827  -37.1926 C   0  0  2  0  0  0  0  0  0  0  0  0
  -19.3302   -6.6015  -31.9709 C   0  0  2  0  0  0  0  0  0  0  0  0
  -19.1928   -6.5299  -34.6353 C   0  0  1  0  0  0  0  0  0  0  0  0
  -20.9822   -5.0179  -33.2814 C   0  0  1  0  0  0  0  0  0  0  0  0
  -21.0799   -4.1605  -31.9273 C   0  0  1  0  0  0  0  0  0  0  0  0
  -25.7869   -6.2047  -22.0015 C   0  0  0  0  0  0  0  0  0  0  0  0
  -15.8801   -6.3825  -25.2223 C   0  0  0  0  0  0  0  0  0  0  0  0
  -16.4854   -3.9361  -25.3957 C   0  0  0  0  0  0  0  0  0  0  0  0
  -22.8662    0.0422  -28.7883 C   0  0  0  0  0  0  0  0  0  0  0  0
  -20.2716   -5.9499  -38.4047 C   0  0  0  0  0  0  0  0  0  0  0  0
  -17.6637   -6.2381  -34.8092 C   0  0  0  0  0  0  0  0  0  0  0  0
  -22.1800   -6.0131  -33.3713 C   0  0  0  0  0  0  0  0  0  0  0  0
  -20.0420   -2.9807  -31.9044 C   0  0  0  0  0  0  0  0  0  0  0  0
  -23.5244   -2.7521  -26.0507 C   0  0  0  0  0  0  0  0  0  0  0  0
  -19.3120   -4.8944  -26.3998 C   0  0  0  0  0  0  0  0  0  0  0  0
  -19.6673   -5.0417  -27.8858 C   0  0  0  0  0  0  0  0  0  0  0  0
  -22.7930   -3.4981  -27.0484 N   0  0  0  0  0  0  0  0  0  0  0  0
  -20.7359   -2.4780  -26.7037 O   0  0  0  0  0  0  0  0  0  0  0  0
  -24.2740   -1.2189  -30.2798 O   0  0  0  0  0  0  0  0  0  0  0  0
  -21.0091   -8.4857  -37.1901 O   0  0  0  0  0  0  0  0  0  0  0  0
  -20.1920   -7.7331  -31.8878 O   0  0  0  0  0  0  0  0  0  0  0  0
  -22.1278   -1.9373  -29.8165 O   0  0  0  0  0  0  0  0  0  0  0  0
  -26.6707   -5.8361  -24.5434 H   0  0  0  0  0  0  0  0  0  0  0  0
  -23.6102   -4.5989  -21.7758 H   0  0  0  0  0  0  0  0  0  0  0  0
  -25.7049   -4.3653  -26.2694 H   0  0  0  0  0  0  0  0  0  0  0  0
  -22.6459   -3.1248  -23.5019 H   0  0  0  0  0  0  0  0  0  0  0  0
  -18.3351   -6.8238  -26.0785 H   0  0  0  0  0  0  0  0  0  0  0  0
  -20.6488   -4.0414  -36.6312 H   0  0  0  0  0  0  0  0  0  0  0  0
  -19.2005   -3.9803  -35.6546 H   0  0  0  0  0  0  0  0  0  0  0  0
  -17.8881   -8.7052  -36.0932 H   0  0  0  0  0  0  0  0  0  0  0  0
  -19.2561   -9.7888  -35.9214 H   0  0  0  0  0  0  0  0  0  0  0  0
  -20.7991   -3.0431  -34.2920 H   0  0  0  0  0  0  0  0  0  0  0  0
  -22.0978   -4.0147  -34.8786 H   0  0  0  0  0  0  0  0  0  0  0  0
  -20.4082   -8.3294  -34.4176 H   0  0  0  0  0  0  0  0  0  0  0  0
  -18.7527   -8.5309  -33.8537 H   0  0  0  0  0  0  0  0  0  0  0  0
  -18.7147   -5.0042  -30.6279 H   0  0  0  0  0  0  0  0  0  0  0  0
  -19.4201   -6.3995  -29.8144 H   0  0  0  0  0  0  0  0  0  0  0  0
  -23.2735   -4.2732  -31.7881 H   0  0  0  0  0  0  0  0  0  0  0  0
  -22.6805   -2.6501  -32.1645 H   0  0  0  0  0  0  0  0  0  0  0  0
  -21.6261   -5.9023  -30.7135 H   0  0  0  0  0  0  0  0  0  0  0  0
  -23.4093   -3.5310  -29.6166 H   0  0  0  0  0  0  0  0  0  0  0  0
  -21.0431   -6.3683  -35.7763 H   0  0  0  0  0  0  0  0  0  0  0  0
  -18.8622   -4.9853  -33.2120 H   0  0  0  0  0  0  0  0  0  0  0  0
  -18.4648   -6.2699  -37.3460 H   0  0  0  0  0  0  0  0  0  0  0  0
  -19.1823   -8.4996  -38.0991 H   0  0  0  0  0  0  0  0  0  0  0  0
  -18.3025   -6.9817  -31.9832 H   0  0  0  0  0  0  0  0  0  0  0  0
  -25.3343   -7.2025  -22.0546 H   0  0  0  0  0  0  0  0  0  0  0  0
  -25.6205   -5.8004  -20.9946 H   0  0  0  0  0  0  0  0  0  0  0  0
  -26.8728   -6.3082  -22.1266 H   0  0  0  0  0  0  0  0  0  0  0  0
  -15.2805   -6.6282  -26.1051 H   0  0  0  0  0  0  0  0  0  0  0  0
  -15.1950   -6.0288  -24.4445 H   0  0  0  0  0  0  0  0  0  0  0  0
  -16.3525   -7.2998  -24.8559 H   0  0  0  0  0  0  0  0  0  0  0  0
  -16.6800   -3.5349  -24.3996 H   0  0  0  0  0  0  0  0  0  0  0  0
  -17.0000   -3.2910  -26.1157 H   0  0  0  0  0  0  0  0  0  0  0  0
  -15.4072   -3.8544  -25.5709 H   0  0  0  0  0  0  0  0  0  0  0  0
  -23.1384   -0.2233  -27.7638 H   0  0  0  0  0  0  0  0  0  0  0  0
  -23.3928    0.9459  -29.1052 H   0  0  0  0  0  0  0  0  0  0  0  0
  -21.7902    0.2363  -28.8239 H   0  0  0  0  0  0  0  0  0  0  0  0
  -21.3288   -6.1843  -38.3178 H   0  0  0  0  0  0  0  0  0  0  0  0
  -19.8798   -6.3787  -39.3227 H   0  0  0  0  0  0  0  0  0  0  0  0
  -20.1398   -4.8716  -38.4232 H   0  0  0  0  0  0  0  0  0  0  0  0
  -17.5295   -5.1703  -34.8097 H   0  0  0  0  0  0  0  0  0  0  0  0
  -17.3503   -6.6672  -35.7450 H   0  0  0  0  0  0  0  0  0  0  0  0
  -17.1451   -6.6923  -33.9828 H   0  0  0  0  0  0  0  0  0  0  0  0
  -22.1398   -6.6663  -32.5145 H   0  0  0  0  0  0  0  0  0  0  0  0
  -22.0816   -6.5764  -34.2853 H   0  0  0  0  0  0  0  0  0  0  0  0
  -23.0937   -5.4406  -33.3723 H   0  0  0  0  0  0  0  0  0  0  0  0
  -19.0774   -3.3919  -32.1391 H   0  0  0  0  0  0  0  0  0  0  0  0
  -20.0550   -2.5558  -30.9175 H   0  0  0  0  0  0  0  0  0  0  0  0
  -20.3500   -2.2628  -32.6424 H   0  0  0  0  0  0  0  0  0  0  0  0
  -24.3121   -2.1878  -26.5617 H   0  0  0  0  0  0  0  0  0  0  0  0
  -22.8376   -2.0233  -25.6074 H   0  0  0  0  0  0  0  0  0  0  0  0
  -20.1963   -5.0734  -25.7821 H   0  0  0  0  0  0  0  0  0  0  0  0
  -19.0311   -3.8497  -26.2141 H   0  0  0  0  0  0  0  0  0  0  0  0
  -18.7988   -4.7463  -28.4881 H   0  0  0  0  0  0  0  0  0  0  0  0
  -19.8388   -6.1022  -28.1134 H   0  0  0  0  0  0  0  0  0  0  0  0
  -23.2855   -4.1997  -27.5932 H   0  0  0  0  0  0  0  0  0  0  0  0
  -21.0083   -9.4526  -37.2453 H   0  0  0  0  0  0  0  0  0  0  0  0
  -19.9263   -8.2255  -31.0956 H   0  0  0  0  0  0  0  0  0  0  0  0
  1  3  1  0  0  0  0
  1  5  2  0  0  0  0
  2  4  2  0  0  0  0
  2  5  1  0  0  0  0
  3  6  2  0  0  0  0
  4  6  1  0  0  0  0
  5 29  1  0  0  0  0
  6 37  1  0  0  0  0
  7  9  2  0  0  0  0
  7 19  1  0  0  0  0
  7 20  1  0  0  0  0
  8 10  2  0  0  0  0
  8 38  1  0  0  0  0
  9 11  1  0  0  0  0
  9 39  1  0  0  0  0
 10 30  1  0  0  0  0
 10 31  1  0  0  0  0
 11 40  1  0  0  0  0
 11 41  2  0  0  0  0
 12 32  1  0  0  0  0
 12 42  2  0  0  0  0
 12 45  1  0  0  0  0
 13 15  1  0  0  0  0
 13 21  1  0  0  0  0
 14 16  1  0  0  0  0
 14 24  1  0  0  0  0
 15 27  1  0  0  0  0
 16 26  1  0  0  0  0
 17 19  1  0  0  0  0
 17 25  1  0  0  0  0
 18 20  1  0  0  0  0
 18 28  1  0  0  0  0
 19 28  1  0  0  0  0
 20 45  1  0  0  0  0
 21 23  1  0  0  0  0
 21 26  1  0  0  0  0
 22 25  1  0  0  0  0
 22 26  1  0  0  0  0
 22 27  1  0  0  0  0
 23 24  1  0  0  0  0
 23 33  1  0  0  0  0
 24 43  1  0  0  0  0
 25 44  1  0  0  0  0
 26 34  1  0  0  0  0
 27 28  1  0  0  0  0
 27 35  1  0  0  0  0
 28 36  1  0  0  0  0
 37 40  1  0  0  0  0
 38 39  1  0  0  0  0
  1 46  1  0  0  0  0
  2 47  1  0  0  0  0
  3 48  1  0  0  0  0
  4 49  1  0  0  0  0
  8 50  1  0  0  0  0
 13 51  1  0  0  0  0
 13 52  1  0  0  0  0
 14 53  1  0  0  0  0
 14 54  1  0  0  0  0
 15 55  1  0  0  0  0
 15 56  1  0  0  0  0
 16 57  1  0  0  0  0
 16 58  1  0  0  0  0
 17 59  1  0  0  0  0
 17 60  1  0  0  0  0
 18 61  1  0  0  0  0
 18 62  1  0  0  0  0
 19 63  1  0  0  0  0
 20 64  1  0  0  0  0
 21 65  1  0  0  0  0
 22 66  1  0  0  0  0
 23 67  1  0  0  0  0
 24 68  1  0  0  0  0
 25 69  1  0  0  0  0
 29 70  1  0  0  0  0
 29 71  1  0  0  0  0
 29 72  1  0  0  0  0
 30 73  1  0  0  0  0
 30 74  1  0  0  0  0
 30 75  1  0  0  0  0
 31 76  1  0  0  0  0
 31 77  1  0  0  0  0
 31 78  1  0  0  0  0
 32 79  1  0  0  0  0
 32 80  1  0  0  0  0
 32 81  1  0  0  0  0
 33 82  1  0  0  0  0
 33 83  1  0  0  0  0
 33 84  1  0  0  0  0
 34 85  1  0  0  0  0
 34 86  1  0  0  0  0
 34 87  1  0  0  0  0
 35 88  1  0  0  0  0
 35 89  1  0  0  0  0
 35 90  1  0  0  0  0
 36 91  1  0  0  0  0
 36 92  1  0  0  0  0
 36 93  1  0  0  0  0
 37 94  1  0  0  0  0
 37 95  1  0  0  0  0
 38 96  1  0  0  0  0
 38 97  1  0  0  0  0
 39 98  1  0  0  0  0
 39 99  1  0  0  0  0
 40100  1  0  0  0  0
 43101  1  0  0  0  0
 44102  1  0  0  0  0
M  END
> <SMILES>
C[C@@H]1[C@H](O)CC[C@@]2(C)[C@H]1CC[C@@]1(C)[C@H]2[C@H](O)C[C@H]2/C(=C(\CCC=C(C)C)C(=O)NCc3ccc(cc3)C)[C@H](C[C@@]21C)OC(=O)C

> <FORMATTED_ID>
H3D-005612

> <MOLFORMULA>
C39H57NO5

> <Exact Mass>
619.42

> <XLogP>
7.32

> <TPSA_NOPS>
95.9

> <s_m_source_file>
ligprep_h3d.sdf

> <i_m_source_file_index>
2407

> <i_lp_mmshare_version>
55123

> <i_f3d_flags>
0

> <s_epik_input>
W0NIMl0xW0NIMl1bQ0BASF0oW09IXSlbQ0BASF0oW0NIM10pW0NAQEhdKFtDQF0xMltDSDNdKVtDSDJdW0NIMl1bQ0BAXTMoW0NIM10pW0NASF0yW0NASF0oW09IXSlbQ0gyXVtDQEBIXTRbQ0BdMyhbQ0gzXSlbQ0gyXVtDQEhdKE9DKD1PKVtDSDNdKUNcND1DKFxbQ0gyXVtDSDJdW0NIXT1DKFtDSDNdKVtDSDNdKUMoPU8pW05IXVtDSDJdYzVbY0hdW2NIXWMoW0NIM10pW2NIXVtjSF01

> <s_epik_cmdline>
J2VwaWtfcHl0aG9uJywgJy1waHQnLCAnMC41JywgJy1waCcsICc3LjUnLCAnLXRuJywgJzgnLCAnLW1hJywgJzUwMCcsICctaW1hZScsICc8aW5maWxlLm1hZT4nLCAnLW9tYWUnLCAnPG91dGZpbGUubWFlPic=

> <r_lp_tautomer_probability>
1

> <r_epik_Ionization_Penalty>
1.65063e-06

> <r_epik_Ionization_Penalty_Charging>
0

> <r_epik_Ionization_Penalty_Neutral>
1.65063e-06

> <r_epik_State_Penalty>
-0

> <r_epik_Charging_Adjusted_Penalty>
0

> <i_epik_Tot_Q>
0

> <i_epik_Tot_abs_Q>
0

> <s_epik_Chemistry_Notes>
This compound has an ester and may undergo hydrolysis at high or low pH.

> <s_lp_Force_Field>
S-OPLS

> <r_lp_Energy>
79.8011

> <b_lp_Chiralities_Consistent>
1

> <s_lp_Variant>
ligprep_h3d.sdf:2407-1

> <ROCS_ShapeQuery>
_7L13

> <ROCS_TanimotoCombo>
0.715 

> <ROCS_ShapeTanimoto>
0.601 

> <ROCS_ColorTanimoto>
0.113 

> <ROCS_RefTversky>
0.814 

> <ROCS_RefColorTversky>
0.253 

> <ROCS_RefTverskyCombo>
1.067 

> <ROCS_FitTversky>
0.697 

> <ROCS_FitColorTversky>
0.170 

> <ROCS_FitTverskyCombo>
0.867 

> <ROCS_ColorScore>
-2.341

> <ROCS_Overlap>
1364.021

> <ROCS_Rank>
88                  

$$$$
ligprep_h3d.sdf:1314_1881
  -OEChem-08212117123D

 69 74  0     1  0  0  0  0  0999 V2000
  -20.1151   -3.7800  -32.2564 C   0  0  0  0  0  0  0  0  0  0  0  0
  -20.5945   -6.1427  -32.0990 C   0  0  0  0  0  0  0  0  0  0  0  0
  -19.5776   -3.9738  -33.5288 C   0  0  0  0  0  0  0  0  0  0  0  0
  -20.0571   -6.3365  -33.3715 C   0  0  0  0  0  0  0  0  0  0  0  0
  -16.8574   -5.9268  -26.5809 C   0  0  0  0  0  0  0  0  0  0  0  0
  -23.0846   -4.1827  -28.8086 C   0  0  0  0  0  0  0  0  0  0  0  0
  -20.7236   -4.4341  -25.3980 C   0  0  0  0  0  0  0  0  0  0  0  0
  -16.7253   -4.5282  -26.6729 C   0  0  0  0  0  0  0  0  0  0  0  0
  -20.9331   -4.5522  -27.8036 C   0  0  0  0  0  0  0  0  0  0  0  0
  -20.6235   -4.8644  -31.5414 C   0  0  0  0  0  0  0  0  0  0  0  0
  -21.1834   -4.6625  -30.2154 C   0  0  0  0  0  0  0  0  0  0  0  0
  -19.5486   -5.2520  -34.0864 C   0  0  0  0  0  0  0  0  0  0  0  0
  -22.5365   -4.3788  -30.0787 C   0  0  0  0  0  0  0  0  0  0  0  0
  -20.3816   -4.7494  -29.0810 C   0  0  0  0  0  0  0  0  0  0  0  0
  -22.3062   -4.2639  -27.6573 C   0  0  0  0  0  0  0  0  0  0  0  0
  -20.1490   -4.6339  -26.6450 C   0  0  0  0  0  0  0  0  0  0  0  0
  -22.0749   -4.1572  -25.3550 C   0  0  0  0  0  0  0  0  0  0  0  0
  -18.2136   -6.1428  -26.5584 C   0  0  0  0  0  0  0  0  0  0  0  0
  -20.4227   -7.0067  -36.8128 C   0  0  0  0  0  0  0  0  0  0  0  0
  -22.7392   -3.9391  -24.0815 C   0  0  0  0  0  0  0  0  0  0  0  0
  -20.3246   -8.4494  -37.2560 C   0  0  0  0  0  0  0  0  0  0  0  0
  -26.3703   -4.4059  -22.8163 C   0  0  0  0  0  0  0  0  0  0  0  0
  -25.4392   -5.3008  -22.0540 C   0  0  0  0  0  0  0  0  0  0  0  0
  -18.4502   -7.8947  -35.8537 C   0  0  0  0  0  0  0  0  0  0  0  0
  -24.8934   -4.1204  -22.8097 C   0  0  0  0  0  0  0  0  0  0  0  0
  -19.3307   -9.0578  -36.2710 C   0  0  1  0  0  0  0  0  0  0  0  0
  -23.4427   -4.2727  -31.2641 C   0  0  0  0  0  0  0  0  0  0  0  0
  -18.9282   -5.0593  -29.3069 C   0  0  0  0  0  0  0  0  0  0  0  0
  -18.9842   -7.3989  -26.4718 C   0  0  0  0  0  0  0  0  0  0  0  0
  -18.9738   -5.4593  -35.4468 C   0  0  0  0  0  0  0  0  0  0  0  0
  -17.9036   -3.9001  -26.7067 N   0  0  0  0  0  0  0  0  0  0  0  0
  -22.8666   -4.0696  -26.4485 N   0  0  0  0  0  0  0  0  0  0  0  0
  -18.7890   -4.9086  -26.6356 N   0  0  0  0  0  0  0  0  0  0  0  0
  -19.3219   -6.7501  -36.0004 N   0  0  0  0  0  0  0  0  0  0  0  0
  -24.0905   -4.2972  -23.9984 N   0  0  0  0  0  0  0  0  0  0  0  0
  -21.2996   -6.2314  -37.1644 O   0  0  0  0  0  0  0  0  0  0  0  0
  -22.1231   -3.4356  -23.1245 O   0  0  0  0  0  0  0  0  0  0  0  0
  -20.0244   -9.5483  -35.1268 O   0  0  0  0  0  0  0  0  0  0  0  0
  -20.1300   -2.7776  -31.8351 H   0  0  0  0  0  0  0  0  0  0  0  0
  -20.9875   -6.9980  -31.5544 H   0  0  0  0  0  0  0  0  0  0  0  0
  -19.1828   -3.1233  -34.0782 H   0  0  0  0  0  0  0  0  0  0  0  0
  -20.0390   -7.3358  -33.7985 H   0  0  0  0  0  0  0  0  0  0  0  0
  -16.0769   -6.6722  -26.5375 H   0  0  0  0  0  0  0  0  0  0  0  0
  -24.1473   -3.9610  -28.7164 H   0  0  0  0  0  0  0  0  0  0  0  0
  -20.1386   -4.4918  -24.4842 H   0  0  0  0  0  0  0  0  0  0  0  0
  -15.8195   -3.9408  -26.7169 H   0  0  0  0  0  0  0  0  0  0  0  0
  -21.3088   -8.9232  -37.2133 H   0  0  0  0  0  0  0  0  0  0  0  0
  -19.9322   -8.4617  -38.2777 H   0  0  0  0  0  0  0  0  0  0  0  0
  -26.8165   -4.7985  -23.7218 H   0  0  0  0  0  0  0  0  0  0  0  0
  -27.0139   -3.7455  -22.2483 H   0  0  0  0  0  0  0  0  0  0  0  0
  -25.4558   -5.2432  -20.9726 H   0  0  0  0  0  0  0  0  0  0  0  0
  -25.2608   -6.2938  -22.4481 H   0  0  0  0  0  0  0  0  0  0  0  0
  -18.1030   -7.9652  -34.8193 H   0  0  0  0  0  0  0  0  0  0  0  0
  -17.6056   -7.7590  -36.5360 H   0  0  0  0  0  0  0  0  0  0  0  0
  -24.5644   -3.2735  -22.2171 H   0  0  0  0  0  0  0  0  0  0  0  0
  -18.7645   -9.8827  -36.7076 H   0  0  0  0  0  0  0  0  0  0  0  0
  -23.4664   -3.2406  -31.6300 H   0  0  0  0  0  0  0  0  0  0  0  0
  -23.1060   -4.9263  -32.0771 H   0  0  0  0  0  0  0  0  0  0  0  0
  -24.4638   -4.5786  -31.0081 H   0  0  0  0  0  0  0  0  0  0  0  0
  -18.7742   -6.1412  -29.2954 H   0  0  0  0  0  0  0  0  0  0  0  0
  -18.5927   -4.6607  -30.2683 H   0  0  0  0  0  0  0  0  0  0  0  0
  -18.3099   -4.6019  -28.5294 H   0  0  0  0  0  0  0  0  0  0  0  0
  -19.1851   -7.6701  -25.4225 H   0  0  0  0  0  0  0  0  0  0  0  0
  -19.9551   -7.3252  -26.9909 H   0  0  0  0  0  0  0  0  0  0  0  0
  -18.4515   -8.2441  -26.9405 H   0  0  0  0  0  0  0  0  0  0  0  0
  -19.3304   -4.6923  -36.1486 H   0  0  0  0  0  0  0  0  0  0  0  0
  -17.8771   -5.3931  -35.4353 H   0  0  0  0  0  0  0  0  0  0  0  0
  -24.5625   -4.6450  -24.8266 H   0  0  0  0  0  0  0  0  0  0  0  0
  -20.6464  -10.2207  -35.4465 H   0  0  0  0  0  0  0  0  0  0  0  0
  1  3  1  0  0  0  0
  1 10  2  0  0  0  0
  2  4  2  0  0  0  0
  2 10  1  0  0  0  0
  3 12  2  0  0  0  0
  4 12  1  0  0  0  0
  5  8  1  0  0  0  0
  5 18  2  0  0  0  0
  6 13  2  0  0  0  0
  6 15  1  0  0  0  0
  7 16  1  0  0  0  0
  7 17  2  0  0  0  0
  8 31  2  0  0  0  0
  9 14  1  0  0  0  0
  9 15  1  0  0  0  0
  9 16  2  0  0  0  0
 10 11  1  0  0  0  0
 11 13  1  0  0  0  0
 11 14  2  0  0  0  0
 12 30  1  0  0  0  0
 13 27  1  0  0  0  0
 14 28  1  0  0  0  0
 15 32  2  0  0  0  0
 16 33  1  0  0  0  0
 17 20  1  0  0  0  0
 17 32  1  0  0  0  0
 18 29  1  0  0  0  0
 18 33  1  0  0  0  0
 19 21  1  0  0  0  0
 19 34  1  0  0  0  0
 19 36  2  0  0  0  0
 20 35  1  0  0  0  0
 20 37  2  0  0  0  0
 21 26  1  0  0  0  0
 22 23  1  0  0  0  0
 22 25  1  0  0  0  0
 23 25  1  0  0  0  0
 24 26  1  0  0  0  0
 24 34  1  0  0  0  0
 25 35  1  0  0  0  0
 26 38  1  0  0  0  0
 30 34  1  0  0  0  0
 31 33  1  0  0  0  0
  1 39  1  0  0  0  0
  2 40  1  0  0  0  0
  3 41  1  0  0  0  0
  4 42  1  0  0  0  0
  5 43  1  0  0  0  0
  6 44  1  0  0  0  0
  7 45  1  0  0  0  0
  8 46  1  0  0  0  0
 21 47  1  0  0  0  0
 21 48  1  0  0  0  0
 22 49  1  0  0  0  0
 22 50  1  0  0  0  0
 23 51  1  0  0  0  0
 23 52  1  0  0  0  0
 24 53  1  0  0  0  0
 24 54  1  0  0  0  0
 25 55  1  0  0  0  0
 26 56  1  0  0  0  0
 27 57  1  0  0  0  0
 27 58  1  0  0  0  0
 27 59  1  0  0  0  0
 28 60  1  0  0  0  0
 28 61  1  0  0  0  0
 28 62  1  0  0  0  0
 29 63  1  0  0  0  0
 29 64  1  0  0  0  0
 29 65  1  0  0  0  0
 30 66  1  0  0  0  0
 30 67  1  0  0  0  0
 35 68  1  0  0  0  0
 38 69  1  0  0  0  0
M  END
> <SMILES>
Cc1cc2nc(cc(c2c(c1-c1ccc(cc1)CN1C[C@@H](O)CC1=O)C)-n1nccc1C)C(=O)NC1CC1

> <FORMATTED_ID>
H3D-008837

> <MOLFORMULA>
C30H31N5O3

> <Exact Mass>
509.24

> <XLogP>
4.08

> <TPSA_NOPS>
100.3

> <s_m_source_file>
ligprep_h3d.sdf

> <i_m_source_file_index>
1314

> <i_lp_mmshare_version>
55123

> <i_f3d_flags>
0

> <s_epik_input>
W0NIMl0xW0NIMl1bQ0hdMVtOSF1DKD1PKWMobjIpW2NIXWMoLW4zbltjSF1bY0hdYzNbQ0gzXSljKGMyNCljKFtDSDNdKWMoYyhbQ0gzXSlbY0hdNCktYzVbY0hdW2NIXWMoW2NIXVtjSF01KVtDSDJdTjZbQ0gyXVtDQEBIXShbT0hdKVtDSDJdQzY9Tw==

> <s_epik_cmdline>
J2VwaWtfcHl0aG9uJywgJy1waHQnLCAnMC41JywgJy1waCcsICc3LjUnLCAnLXRuJywgJzgnLCAnLW1hJywgJzUwMCcsICctaW1hZScsICc8aW5maWxlLm1hZT4nLCAnLW9tYWUnLCAnPG91dGZpbGUubWFlPic=

> <r_lp_tautomer_probability>
1

> <r_epik_Ionization_Penalty>
2.13614e-05

> <r_epik_Ionization_Penalty_Charging>
0

> <r_epik_Ionization_Penalty_Neutral>
2.13614e-05

> <r_epik_State_Penalty>
-0

> <r_epik_Charging_Adjusted_Penalty>
0

> <i_epik_Tot_Q>
0

> <i_epik_Tot_abs_Q>
0

> <s_lp_Force_Field>
S-OPLS

> <r_lp_Energy>
42.4716

> <b_lp_Chiralities_Consistent>
1

> <s_lp_Variant>
ligprep_h3d.sdf:1314-1

> <ROCS_ShapeQuery>
_7L13

> <ROCS_TanimotoCombo>
0.758 

> <ROCS_ShapeTanimoto>
0.652 

> <ROCS_ColorTanimoto>
0.106 

> <ROCS_RefTversky>
0.814 

> <ROCS_RefColorTversky>
0.221 

> <ROCS_RefTverskyCombo>
1.035 

> <ROCS_FitTversky>
0.766 

> <ROCS_FitColorTversky>
0.171 

> <ROCS_FitTverskyCombo>
0.936 

> <ROCS_ColorScore>
-2.022

> <ROCS_Overlap>
1356.026

> <ROCS_Rank>
89                  

$$$$
ligprep_h3d.sdf:5310_665
  -OEChem-08212117123D

 74 80  0     0  0  0  0  0  0999 V2000
  -19.7690   -6.4770  -36.0430 C   0  0  0  0  0  0  0  0  0  0  0  0
  -19.7748   -7.5690  -35.1753 C   0  0  0  0  0  0  0  0  0  0  0  0
  -19.7307   -5.1799  -35.5315 C   0  0  0  0  0  0  0  0  0  0  0  0
  -19.7424   -7.3640  -33.7960 C   0  0  0  0  0  0  0  0  0  0  0  0
  -19.6982   -4.9748  -34.1522 C   0  0  0  0  0  0  0  0  0  0  0  0
  -22.8938   -4.1318  -28.9381 C   0  0  0  0  0  0  0  0  0  0  0  0
  -20.1323   -4.6516  -29.1252 C   0  0  0  0  0  0  0  0  0  0  0  0
  -27.6840   -3.0448  -23.3730 C   0  0  0  0  0  0  0  0  0  0  0  0
  -14.7986   -5.3779  -25.5049 C   0  0  0  0  0  0  0  0  0  0  0  0
  -14.8567   -6.5618  -24.8174 C   0  0  0  0  0  0  0  0  0  0  0  0
  -22.1166   -4.2870  -27.7966 C   0  0  0  0  0  0  0  0  0  0  0  0
  -19.7041   -6.0668  -33.2844 C   0  0  0  0  0  0  0  0  0  0  0  0
  -20.7433   -4.5475  -27.8808 C   0  0  0  0  0  0  0  0  0  0  0  0
  -22.2810   -4.2456  -30.1853 C   0  0  0  0  0  0  0  0  0  0  0  0
  -20.9082   -4.5027  -30.2782 C   0  0  0  0  0  0  0  0  0  0  0  0
  -26.5246   -3.6764  -22.8909 C   0  0  0  0  0  0  0  0  0  0  0  0
  -28.6947   -3.8909  -23.0003 C   0  0  0  0  0  0  0  0  0  0  0  0
  -16.9185   -6.0211  -25.4013 C   0  0  0  0  0  0  0  0  0  0  0  0
  -18.3857   -5.9443  -25.6353 C   0  0  0  0  0  0  0  0  0  0  0  0
  -17.8648   -3.8697  -26.7848 C   0  0  0  0  0  0  0  0  0  0  0  0
  -16.5406   -3.9639  -26.5594 C   0  0  0  0  0  0  0  0  0  0  0  0
  -18.8396   -4.8730  -26.3216 C   0  0  0  0  0  0  0  0  0  0  0  0
  -22.8565   -2.6958  -26.0028 C   0  0  0  0  0  0  0  0  0  0  0  0
  -23.7488   -5.0458  -26.0072 C   0  0  0  0  0  0  0  0  0  0  0  0
  -23.4067   -2.5371  -24.5807 C   0  0  0  0  0  0  0  0  0  0  0  0
  -24.2340   -4.8163  -24.5732 C   0  0  0  0  0  0  0  0  0  0  0  0
  -21.2410   -4.6593  -25.6299 C   0  0  0  0  0  0  0  0  0  0  0  0
  -22.5357   -4.1637  -26.3521 C   0  0  0  0  0  0  0  0  0  0  0  0
  -30.1527   -3.8691  -23.1697 C   0  0  0  0  0  0  0  0  0  0  0  0
  -23.1532   -2.7764  -31.8396 C   0  0  0  0  0  0  0  0  0  0  0  0
  -19.6694   -5.8455  -31.8007 C   0  0  0  0  0  0  0  0  0  0  0  0
  -25.1038   -3.2054  -23.0082 C   0  0  0  0  0  0  0  0  0  0  0  0
  -26.7954   -4.8262  -22.2669 N   0  0  0  0  0  0  0  0  0  0  0  0
  -16.0933   -5.0609  -25.8584 N   0  0  0  0  0  0  0  0  0  0  0  0
  -16.1794   -6.9362  -24.7689 N   0  3  0  0  0  0  0  0  0  0  0  0
  -20.1481   -4.6674  -26.6099 N   0  0  0  0  0  0  0  0  0  0  0  0
  -24.5710   -3.4034  -24.3560 N   0  0  0  0  0  0  0  0  0  0  0  0
  -28.1770   -4.9578  -22.3394 O   0  0  0  0  0  0  0  0  0  0  0  0
  -23.0313   -4.0961  -31.3133 O   0  0  0  0  0  0  0  0  0  0  0  0
  -20.3109   -4.6086  -31.4996 O   0  0  0  0  0  0  0  0  0  0  0  0
  -19.7929   -6.6369  -37.1171 H   0  0  0  0  0  0  0  0  0  0  0  0
  -19.8036   -8.5791  -35.5734 H   0  0  0  0  0  0  0  0  0  0  0  0
  -19.7250   -4.3294  -36.2068 H   0  0  0  0  0  0  0  0  0  0  0  0
  -19.7474   -8.2208  -33.1274 H   0  0  0  0  0  0  0  0  0  0  0  0
  -19.6686   -3.9606  -33.7626 H   0  0  0  0  0  0  0  0  0  0  0  0
  -23.9549   -3.9158  -28.8643 H   0  0  0  0  0  0  0  0  0  0  0  0
  -19.0693   -4.8515  -29.2178 H   0  0  0  0  0  0  0  0  0  0  0  0
  -27.7729   -2.1130  -23.9120 H   0  0  0  0  0  0  0  0  0  0  0  0
  -14.0075   -4.7120  -25.7935 H   0  0  0  0  0  0  0  0  0  0  0  0
  -14.1424   -7.2074  -24.3460 H   0  0  0  0  0  0  0  0  0  0  0  0
  -19.0309   -6.7283  -25.2584 H   0  0  0  0  0  0  0  0  0  0  0  0
  -18.2474   -3.0147  -27.3354 H   0  0  0  0  0  0  0  0  0  0  0  0
  -15.8167   -3.2328  -26.8951 H   0  0  0  0  0  0  0  0  0  0  0  0
  -23.6013   -2.3003  -26.7077 H   0  0  0  0  0  0  0  0  0  0  0  0
  -21.9652   -2.0651  -26.1188 H   0  0  0  0  0  0  0  0  0  0  0  0
  -23.5104   -6.1077  -26.1483 H   0  0  0  0  0  0  0  0  0  0  0  0
  -24.5801   -4.8309  -26.6923 H   0  0  0  0  0  0  0  0  0  0  0  0
  -22.6190   -2.7426  -23.8453 H   0  0  0  0  0  0  0  0  0  0  0  0
  -23.6987   -1.4880  -24.4485 H   0  0  0  0  0  0  0  0  0  0  0  0
  -25.1249   -5.4362  -24.4147 H   0  0  0  0  0  0  0  0  0  0  0  0
  -23.4738   -5.1550  -23.8577 H   0  0  0  0  0  0  0  0  0  0  0  0
  -20.9793   -4.0313  -24.7710 H   0  0  0  0  0  0  0  0  0  0  0  0
  -21.3715   -5.6823  -25.2529 H   0  0  0  0  0  0  0  0  0  0  0  0
  -30.4595   -4.3695  -24.1062 H   0  0  0  0  0  0  0  0  0  0  0  0
  -30.6815   -4.3741  -22.3393 H   0  0  0  0  0  0  0  0  0  0  0  0
  -30.5586   -2.8401  -23.1990 H   0  0  0  0  0  0  0  0  0  0  0  0
  -23.7759   -2.7974  -32.7373 H   0  0  0  0  0  0  0  0  0  0  0  0
  -22.1611   -2.3862  -32.0804 H   0  0  0  0  0  0  0  0  0  0  0  0
  -23.6220   -2.1362  -31.0886 H   0  0  0  0  0  0  0  0  0  0  0  0
  -20.1860   -6.6538  -31.2719 H   0  0  0  0  0  0  0  0  0  0  0  0
  -18.6365   -5.8122  -31.4377 H   0  0  0  0  0  0  0  0  0  0  0  0
  -25.0296   -2.1389  -22.7695 H   0  0  0  0  0  0  0  0  0  0  0  0
  -24.4532   -3.7412  -22.3090 H   0  0  0  0  0  0  0  0  0  0  0  0
  -16.5374   -7.7759  -24.3222 H   0  0  0  0  0  0  0  0  0  0  0  0
  1  2  2  0  0  0  0
  1  3  1  0  0  0  0
  2  4  1  0  0  0  0
  3  5  2  0  0  0  0
  4 12  2  0  0  0  0
  5 12  1  0  0  0  0
  6 11  1  0  0  0  0
  6 14  2  0  0  0  0
  7 13  1  0  0  0  0
  7 15  2  0  0  0  0
  8 16  1  0  0  0  0
  8 17  2  0  0  0  0
  9 10  2  0  0  0  0
  9 34  1  0  0  0  0
 10 35  1  0  0  0  0
 11 13  2  0  0  0  0
 11 28  1  0  0  0  0
 12 31  1  0  0  0  0
 13 36  1  0  0  0  0
 14 15  1  0  0  0  0
 14 39  1  0  0  0  0
 15 40  1  0  0  0  0
 16 32  1  0  0  0  0
 16 33  2  0  0  0  0
 17 29  1  0  0  0  0
 17 38  1  0  0  0  0
 18 19  1  0  0  0  0
 18 34  1  0  0  0  0
 18 35  2  0  0  0  0
 19 22  2  0  0  0  0
 20 21  2  0  0  0  0
 20 22  1  0  0  0  0
 21 34  1  0  0  0  0
 22 36  1  0  0  0  0
 23 25  1  0  0  0  0
 23 28  1  0  0  0  0
 24 26  1  0  0  0  0
 24 28  1  0  0  0  0
 25 37  1  0  0  0  0
 26 37  1  0  0  0  0
 27 28  1  0  0  0  0
 27 36  1  0  0  0  0
 30 39  1  0  0  0  0
 31 40  1  0  0  0  0
 32 37  1  0  0  0  0
 33 38  1  0  0  0  0
  1 41  1  0  0  0  0
  2 42  1  0  0  0  0
  3 43  1  0  0  0  0
  4 44  1  0  0  0  0
  5 45  1  0  0  0  0
  6 46  1  0  0  0  0
  7 47  1  0  0  0  0
  8 48  1  0  0  0  0
  9 49  1  0  0  0  0
 10 50  1  0  0  0  0
 19 51  1  0  0  0  0
 20 52  1  0  0  0  0
 21 53  1  0  0  0  0
 23 54  1  0  0  0  0
 23 55  1  0  0  0  0
 24 56  1  0  0  0  0
 24 57  1  0  0  0  0
 25 58  1  0  0  0  0
 25 59  1  0  0  0  0
 26 60  1  0  0  0  0
 26 61  1  0  0  0  0
 27 62  1  0  0  0  0
 27 63  1  0  0  0  0
 29 64  1  0  0  0  0
 29 65  1  0  0  0  0
 29 66  1  0  0  0  0
 30 67  1  0  0  0  0
 30 68  1  0  0  0  0
 30 69  1  0  0  0  0
 31 70  1  0  0  0  0
 31 71  1  0  0  0  0
 32 72  1  0  0  0  0
 32 73  1  0  0  0  0
 35 74  1  0  0  0  0
M  CHG  1  35   1
M  END
> <SMILES>
COc1cc2c(cc1OCc1ccccc1)N(CC12CCN(CC1)Cc1cc(on1)C)c1ccn2ccnc2c1

> <FORMATTED_ID>
H3D-014313

> <MOLFORMULA>
C32H33N5O3

> <Exact Mass>
535.26

> <XLogP>
6.01

> <TPSA_NOPS>
68.6

> <s_m_source_file>
ligprep_h3d.sdf

> <i_m_source_file_index>
5310

> <i_lp_mmshare_version>
55123

> <i_f3d_flags>
0

> <s_epik_input>
W2NIXTFbY0hdW2NIXVtjSF1bY0hdYzFbQ0gyXU9jKGMoW2NIXTIpT1tDSDNdKVtjSF1jKE4oW0NIMl0zKWMoW2NIXVtjSF00KVtjSF1jKG40NSluW2NIXVtjSF01KWMyQzM2W0NIMl1bQ0gyXU4oW0NIMl1bQ0gyXTYpW0NIMl1jN1tjSF1jKG9uNylbQ0gzXQ==

> <s_epik_cmdline>
J2VwaWtfcHl0aG9uJywgJy1waHQnLCAnMC41JywgJy1waCcsICc3LjUnLCAnLXRuJywgJzgnLCAnLW1hJywgJzUwMCcsICctaW1hZScsICc8aW5maWxlLm1hZT4nLCAnLW9tYWUnLCAnPG91dGZpbGUubWFlPic=

> <r_lp_tautomer_probability>
1

> <r_epik_Ionization_Penalty>
0.406962

> <r_epik_Ionization_Penalty_Charging>
0

> <r_epik_Ionization_Penalty_Neutral>
0.406962

> <r_epik_State_Penalty>
0.41192

> <r_epik_Charging_Adjusted_Penalty>
0.41192

> <i_epik_Tot_Q>
1

> <i_epik_Tot_abs_Q>
1

> <s_lp_Force_Field>
S-OPLS

> <r_lp_Energy>
68.9871

> <b_lp_Chiralities_Consistent>
1

> <s_lp_Variant>
ligprep_h3d.sdf:5310-1

> <ROCS_ShapeQuery>
_7L13

> <ROCS_TanimotoCombo>
0.727 

> <ROCS_ShapeTanimoto>
0.625 

> <ROCS_ColorTanimoto>
0.102 

> <ROCS_RefTversky>
0.814 

> <ROCS_RefColorTversky>
0.222 

> <ROCS_RefTverskyCombo>
1.036 

> <ROCS_FitTversky>
0.729 

> <ROCS_FitColorTversky>
0.159 

> <ROCS_FitTverskyCombo>
0.888 

> <ROCS_ColorScore>
-2.045

> <ROCS_Overlap>
1359.986

> <ROCS_Rank>
90                  

$$$$
ligprep_h3d.sdf:2559_1662
  -OEChem-08212117123D

 73 78  0     1  0  0  0  0  0999 V2000
  -19.2901   -2.9276  -23.1788 C   0  0  0  0  0  0  0  0  0  0  0  0
  -17.4989   -2.2401  -26.0983 C   0  0  0  0  0  0  0  0  0  0  0  0
  -17.0344   -4.4963  -25.3699 C   0  0  0  0  0  0  0  0  0  0  0  0
  -16.1327   -2.0115  -26.2619 C   0  0  0  0  0  0  0  0  0  0  0  0
  -15.6681   -4.2678  -25.5335 C   0  0  0  0  0  0  0  0  0  0  0  0
  -19.3567   -5.3352  -35.4130 C   0  0  0  0  0  0  0  0  0  0  0  0
  -18.7271   -5.3007  -36.6849 C   0  0  0  0  0  0  0  0  0  0  0  0
  -24.6069   -3.9982  -22.7105 C   0  0  0  0  0  0  0  0  0  0  0  0
  -25.7303   -5.0891  -24.5542 C   0  0  0  0  0  0  0  0  0  0  0  0
  -17.9498   -3.4825  -25.6523 C   0  0  0  0  0  0  0  0  0  0  0  0
  -15.2173   -3.0254  -25.9795 C   0  0  0  0  0  0  0  0  0  0  0  0
  -23.4259   -3.9636  -23.4743 C   0  0  0  0  0  0  0  0  0  0  0  0
  -19.7710   -7.6504  -35.6594 C   0  0  0  0  0  0  0  0  0  0  0  0
  -19.1243   -7.6151  -36.9656 C   0  0  0  0  0  0  0  0  0  0  0  0
  -23.4150   -4.4694  -24.7753 C   0  0  0  0  0  0  0  0  0  0  0  0
  -19.9009   -6.5052  -34.8525 C   0  0  0  0  0  0  0  0  0  0  0  0
  -18.5865   -6.4332  -37.5075 C   0  0  0  0  0  0  0  0  0  0  0  0
  -25.7560   -4.5622  -23.2672 C   0  0  0  0  0  0  0  0  0  0  0  0
  -24.5638   -5.0576  -25.3284 C   0  0  0  0  0  0  0  0  0  0  0  0
  -21.4116   -3.7060  -24.1523 C   0  0  0  0  0  0  0  0  0  0  0  0
  -20.1845   -4.2476  -26.5958 C   0  0  0  0  0  0  0  0  0  0  0  0
  -20.0084   -3.4531  -24.2973 C   0  0  0  0  0  0  0  0  0  0  0  0
  -19.3999   -3.7252  -25.4785 C   0  0  0  0  0  0  0  0  0  0  0  0
  -21.5057   -4.4953  -26.4857 C   0  0  0  0  0  0  0  0  0  0  0  0
  -24.6918   -4.4170  -32.2222 C   0  0  0  0  0  0  0  0  0  0  0  0
  -21.0056   -5.2538  -32.9980 C   0  0  0  0  0  0  0  0  0  0  0  0
  -21.7729   -4.7539  -28.8971 C   0  0  0  0  0  0  0  0  0  0  0  0
  -23.4405   -3.5786  -32.0782 C   0  0  0  0  0  0  0  0  0  0  0  0
  -21.9781   -5.5871  -31.8824 C   0  0  0  0  0  0  0  0  0  0  0  0
  -22.9445   -4.5560  -29.8402 C   0  0  0  0  0  0  0  0  0  0  0  0
  -13.7568   -2.7811  -26.1568 C   0  0  0  0  0  0  0  0  0  0  0  0
  -18.7070   -2.5011  -22.2711 N   0  0  0  0  0  0  0  0  0  0  0  0
  -22.1941   -3.4968  -23.1149 N   0  0  0  0  0  0  0  0  0  0  0  0
  -20.1747   -8.9056  -35.4270 N   0  0  0  0  0  0  0  0  0  0  0  0
  -19.1573   -8.8500  -37.4819 N   0  0  0  0  0  0  0  0  0  0  0  0
  -22.1163   -4.2503  -25.2350 N   0  0  0  0  0  0  0  0  0  0  0  0
  -20.4995   -6.4953  -33.6248 N   0  0  0  0  0  0  0  0  0  0  0  0
  -22.2431   -4.9367  -27.5498 N   0  0  0  0  0  0  0  0  0  0  0  0
  -17.9596   -6.4055  -38.7726 N   0  3  0  0  0  0  0  0  0  0  0  0
  -22.4449   -4.3159  -31.2165 N   0  3  2  0  0  0  0  0  0  0  0  0
  -17.4968   -5.3187  -39.2070 O   0  5  0  0  0  0  0  0  0  0  0  0
  -17.8759   -7.4682  -39.4418 O   0  0  0  0  0  0  0  0  0  0  0  0
  -19.7992   -9.6368  -36.5409 O   0  0  0  0  0  0  0  0  0  0  0  0
  -13.4619   -1.5232  -26.6002 F   0  0  0  0  0  0  0  0  0  0  0  0
  -13.0337   -2.9321  -25.0079 F   0  0  0  0  0  0  0  0  0  0  0  0
  -13.1883   -3.6305  -27.0614 F   0  0  0  0  0  0  0  0  0  0  0  0
  -27.2188   -4.5852  -22.3581 Cl  0  0  0  0  0  0  0  0  0  0  0  0
  -24.7891   -5.6291  -26.9359 Cl  0  0  0  0  0  0  0  0  0  0  0  0
  -18.2004   -1.4399  -26.3223 H   0  0  0  0  0  0  0  0  0  0  0  0
  -17.3705   -5.4702  -25.0219 H   0  0  0  0  0  0  0  0  0  0  0  0
  -15.7904   -1.0407  -26.6103 H   0  0  0  0  0  0  0  0  0  0  0  0
  -14.9617   -5.0633  -25.3111 H   0  0  0  0  0  0  0  0  0  0  0  0
  -19.4153   -4.4028  -34.8511 H   0  0  0  0  0  0  0  0  0  0  0  0
  -18.3362   -4.3436  -37.0305 H   0  0  0  0  0  0  0  0  0  0  0  0
  -24.6160   -3.5802  -21.7079 H   0  0  0  0  0  0  0  0  0  0  0  0
  -26.6448   -5.5161  -24.9654 H   0  0  0  0  0  0  0  0  0  0  0  0
  -19.6476   -4.4764  -27.5133 H   0  0  0  0  0  0  0  0  0  0  0  0
  -24.4571   -5.3643  -32.7172 H   0  0  0  0  0  0  0  0  0  0  0  0
  -25.1300   -4.6452  -31.2450 H   0  0  0  0  0  0  0  0  0  0  0  0
  -25.4480   -3.8998  -32.8221 H   0  0  0  0  0  0  0  0  0  0  0  0
  -21.4796   -4.6365  -33.7683 H   0  0  0  0  0  0  0  0  0  0  0  0
  -20.1502   -4.7005  -32.5971 H   0  0  0  0  0  0  0  0  0  0  0  0
  -21.1737   -5.6245  -29.1837 H   0  0  0  0  0  0  0  0  0  0  0  0
  -21.1235   -3.8728  -28.9156 H   0  0  0  0  0  0  0  0  0  0  0  0
  -23.6472   -2.6246  -31.5856 H   0  0  0  0  0  0  0  0  0  0  0  0
  -22.9597   -3.4006  -33.0440 H   0  0  0  0  0  0  0  0  0  0  0  0
  -21.5004   -6.1902  -31.1050 H   0  0  0  0  0  0  0  0  0  0  0  0
  -22.8727   -6.1000  -32.2483 H   0  0  0  0  0  0  0  0  0  0  0  0
  -23.5339   -3.6772  -29.5637 H   0  0  0  0  0  0  0  0  0  0  0  0
  -23.5945   -5.4349  -29.8881 H   0  0  0  0  0  0  0  0  0  0  0  0
  -20.6176   -7.3347  -33.0992 H   0  0  0  0  0  0  0  0  0  0  0  0
  -23.1066   -5.3836  -27.3462 H   0  0  0  0  0  0  0  0  0  0  0  0
  -21.6142   -3.7029  -31.1510 H   0  0  0  0  0  0  0  0  0  0  0  0
  1 22  1  0  0  0  0
  1 32  3  0  0  0  0
  2  4  1  0  0  0  0
  2 10  2  0  0  0  0
  3  5  2  0  0  0  0
  3 10  1  0  0  0  0
  4 11  2  0  0  0  0
  5 11  1  0  0  0  0
  6  7  1  0  0  0  0
  6 16  2  0  0  0  0
  7 17  2  0  0  0  0
  8 12  2  0  0  0  0
  8 18  1  0  0  0  0
  9 18  2  0  0  0  0
  9 19  1  0  0  0  0
 10 23  1  0  0  0  0
 11 31  1  0  0  0  0
 12 15  1  0  0  0  0
 12 33  1  0  0  0  0
 13 14  1  0  0  0  0
 13 16  1  0  0  0  0
 13 34  2  0  0  0  0
 14 17  1  0  0  0  0
 14 35  2  0  0  0  0
 15 19  2  0  0  0  0
 15 36  1  0  0  0  0
 16 37  1  0  0  0  0
 17 39  1  0  0  0  0
 18 47  1  0  0  0  0
 19 48  1  0  0  0  0
 20 22  1  0  0  0  0
 20 33  2  0  0  0  0
 20 36  1  0  0  0  0
 21 23  1  0  0  0  0
 21 24  2  0  0  0  0
 22 23  2  0  0  0  0
 24 36  1  0  0  0  0
 24 38  1  0  0  0  0
 25 28  1  0  0  0  0
 26 29  1  0  0  0  0
 26 37  1  0  0  0  0
 27 30  1  0  0  0  0
 27 38  1  0  0  0  0
 28 40  1  0  0  0  0
 29 40  1  0  0  0  0
 30 40  1  0  0  0  0
 31 44  1  0  0  0  0
 31 45  1  0  0  0  0
 31 46  1  0  0  0  0
 34 43  1  0  0  0  0
 35 43  1  0  0  0  0
 39 41  1  0  0  0  0
 39 42  2  0  0  0  0
  2 49  1  0  0  0  0
  3 50  1  0  0  0  0
  4 51  1  0  0  0  0
  5 52  1  0  0  0  0
  6 53  1  0  0  0  0
  7 54  1  0  0  0  0
  8 55  1  0  0  0  0
  9 56  1  0  0  0  0
 21 57  1  0  0  0  0
 25 58  1  0  0  0  0
 25 59  1  0  0  0  0
 25 60  1  0  0  0  0
 26 61  1  0  0  0  0
 26 62  1  0  0  0  0
 27 63  1  0  0  0  0
 27 64  1  0  0  0  0
 28 65  1  0  0  0  0
 28 66  1  0  0  0  0
 29 67  1  0  0  0  0
 29 68  1  0  0  0  0
 30 69  1  0  0  0  0
 30 70  1  0  0  0  0
 37 71  1  0  0  0  0
 38 72  1  0  0  0  0
 40 73  1  0  0  0  0
M  CHG  3  39   1  40   1  41  -1
M  END
> <SMILES>
CCN(CCNc1ccc(c2nonc12)[N+](=O)[O-])CCNc1cc(c(c2nc3cc(cc(c3n12)Cl)Cl)C#N)-c1ccc(cc1)C(F)(F)F

> <FORMATTED_ID>
H3D-006782

> <MOLFORMULA>
C31H24Cl2F3N9O3

> <Exact Mass>
697.13

> <XLogP>
7.32

> <TPSA_NOPS>
150.8

> <s_m_source_file>
ligprep_h3d.sdf

> <i_m_source_file_index>
2559

> <i_lp_mmshare_version>
55123

> <i_f3d_flags>
0

> <s_epik_input>
Tz1bTitdKFtPLV0pYzFbY0hdW2NIXWMoYyhjMTIpbm9uMilbTkhdW0NIMl1bQ0gyXU4oW0NIMl1bQ0gzXSlbQ0gyXVtDSDJdW05IXWMobihjMzQpYzVjKG40KVtjSF1jKENsKVtjSF1jNUNsKVtjSF1jKGMzQyNOKS1jNltjSF1bY0hdYyhDKEYpKEYpRilbY0hdW2NIXTY=

> <s_epik_cmdline>
J2VwaWtfcHl0aG9uJywgJy1waHQnLCAnMC41JywgJy1waCcsICc3LjUnLCAnLXRuJywgJzgnLCAnLW1hJywgJzUwMCcsICctaW1hZScsICc8aW5maWxlLm1hZT4nLCAnLW9tYWUnLCAnPG91dGZpbGUubWFlPic=

> <r_lp_tautomer_probability>
1

> <r_epik_Ionization_Penalty>
0.00409477

> <r_epik_Ionization_Penalty_Charging>
0.00377585

> <r_epik_Ionization_Penalty_Neutral>
0.000318921

> <r_epik_State_Penalty>
-0

> <r_epik_Charging_Adjusted_Penalty>
0.00377585

> <i_epik_Tot_Q>
1

> <i_epik_Tot_abs_Q>
3

> <s_lp_Force_Field>
S-OPLS

> <r_lp_Energy>
85.4064

> <b_lp_Chiralities_Consistent>
1

> <s_lp_Variant>
ligprep_h3d.sdf:2559-1

> <ROCS_ShapeQuery>
_7L13

> <ROCS_TanimotoCombo>
0.636 

> <ROCS_ShapeTanimoto>
0.547 

> <ROCS_ColorTanimoto>
0.089 

> <ROCS_RefTversky>
0.814 

> <ROCS_RefColorTversky>
0.219 

> <ROCS_RefTverskyCombo>
1.033 

> <ROCS_FitTversky>
0.625 

> <ROCS_FitColorTversky>
0.130 

> <ROCS_FitTverskyCombo>
0.755 

> <ROCS_ColorScore>
-2.051

> <ROCS_Overlap>
1374.243

> <ROCS_Rank>
91                  

$$$$
ligprep_h3d.sdf:992_1749
  -OEChem-08212117123D

 58 63  0     1  0  0  0  0  0999 V2000
  -20.7062   -4.7633  -29.5796 C   0  0  0  0  0  0  0  0  0  0  0  0
  -21.5355   -4.0365  -30.4360 C   0  0  0  0  0  0  0  0  0  0  0  0
  -20.9390   -4.6949  -28.1843 C   0  0  0  0  0  0  0  0  0  0  0  0
  -22.0053   -3.9507  -27.6270 C   0  0  0  0  0  0  0  0  0  0  0  0
  -22.5505   -3.2860  -29.8848 C   0  0  0  0  0  0  0  0  0  0  0  0
  -22.8174   -3.2091  -28.5176 C   0  0  0  0  0  0  0  0  0  0  0  0
  -21.6623   -3.8082  -31.8188 C   0  0  0  0  0  0  0  0  0  0  0  0
  -19.0830   -3.5398  -26.0142 C   0  0  0  0  0  0  0  0  0  0  0  0
  -19.1408   -5.9469  -25.0928 C   0  0  0  0  0  0  0  0  0  0  0  0
  -16.9880   -4.7887  -25.5425 C   0  0  0  0  0  0  0  0  0  0  0  0
  -20.2048   -6.7951  -36.2022 C   0  0  0  0  0  0  0  0  0  0  0  0
  -20.0127   -5.4747  -27.2897 C   0  0  0  0  0  0  0  0  0  0  0  0
  -23.3479   -3.1928  -25.6762 C   0  0  0  0  0  0  0  0  0  0  0  0
  -20.3487   -7.7463  -34.1379 C   0  0  0  0  0  0  0  0  0  0  0  0
  -21.3036   -4.6198  -25.2938 C   0  0  2  0  0  0  0  0  0  0  0  0
  -20.1037   -6.2616  -33.9507 C   0  0  2  0  0  0  0  0  0  0  0  0
  -23.7533   -3.7127  -24.2941 C   0  0  1  0  0  0  0  0  0  0  0  0
  -21.3581   -3.8115  -23.9647 C   0  0  2  0  0  0  0  0  0  0  0  0
  -19.8771   -4.8495  -25.8789 C   0  0  0  0  0  0  0  0  0  0  0  0
  -24.5570   -5.0097  -24.3660 C   0  0  0  0  0  0  0  0  0  0  0  0
  -20.4083   -4.2659  -22.8628 C   0  0  0  0  0  0  0  0  0  0  0  0
  -21.3327   -5.5354  -33.4200 C   0  0  0  0  0  0  0  0  0  0  0  0
  -22.6726   -2.9815  -32.1054 N   0  0  0  0  0  0  0  0  0  0  0  0
  -17.7049   -3.6786  -25.9655 N   0  0  0  0  0  0  0  0  0  0  0  0
  -17.7577   -5.8553  -25.1004 N   0  0  0  0  0  0  0  0  0  0  0  0
  -19.8011   -5.8489  -35.2864 N   0  0  0  0  0  0  0  0  0  0  0  0
  -22.2241   -3.9462  -26.2473 N   0  0  3  0  0  0  0  0  0  0  0  0
  -19.6124   -2.4471  -26.2163 O   0  0  0  0  0  0  0  0  0  0  0  0
  -19.7227   -6.8956  -24.5651 O   0  0  0  0  0  0  0  0  0  0  0  0
  -15.7562   -4.8106  -25.5225 O   0  0  0  0  0  0  0  0  0  0  0  0
  -20.1771   -6.6960  -37.4206 O   0  0  0  0  0  0  0  0  0  0  0  0
  -23.2324   -2.6504  -30.8768 O   0  0  0  0  0  0  0  0  0  0  0  0
  -20.6665   -7.9006  -35.5330 O   0  0  0  0  0  0  0  0  0  0  0  0
  -22.6682   -3.9010  -23.3909 O   0  0  0  0  0  0  0  0  0  0  0  0
  -20.9219   -4.2945  -32.8238 O   0  0  0  0  0  0  0  0  0  0  0  0
  -23.7665   -2.3565  -28.1139 F   0  0  0  0  0  0  0  0  0  0  0  0
  -19.8913   -5.3615  -29.9775 H   0  0  0  0  0  0  0  0  0  0  0  0
  -20.4033   -6.4997  -27.2259 H   0  0  0  0  0  0  0  0  0  0  0  0
  -19.0225   -5.5447  -27.7604 H   0  0  0  0  0  0  0  0  0  0  0  0
  -24.2030   -3.2968  -26.3760 H   0  0  0  0  0  0  0  0  0  0  0  0
  -23.1974   -2.1056  -25.5888 H   0  0  0  0  0  0  0  0  0  0  0  0
  -19.4564   -8.3378  -33.9099 H   0  0  0  0  0  0  0  0  0  0  0  0
  -21.1923   -8.1282  -33.5522 H   0  0  0  0  0  0  0  0  0  0  0  0
  -21.7609   -5.6024  -25.0998 H   0  0  0  0  0  0  0  0  0  0  0  0
  -19.2471   -6.0691  -33.3367 H   0  0  0  0  0  0  0  0  0  0  0  0
  -24.4561   -2.9460  -23.8147 H   0  0  0  0  0  0  0  0  0  0  0  0
  -21.1504   -2.7414  -24.1485 H   0  0  0  0  0  0  0  0  0  0  0  0
  -23.9530   -5.7982  -24.8150 H   0  0  0  0  0  0  0  0  0  0  0  0
  -25.4512   -4.8611  -24.9715 H   0  0  0  0  0  0  0  0  0  0  0  0
  -24.8553   -5.3195  -23.3644 H   0  0  0  0  0  0  0  0  0  0  0  0
  -20.5719   -5.3206  -22.6411 H   0  0  0  0  0  0  0  0  0  0  0  0
  -20.5813   -3.6834  -21.9579 H   0  0  0  0  0  0  0  0  0  0  0  0
  -19.3750   -4.1273  -23.1808 H   0  0  0  0  0  0  0  0  0  0  0  0
  -21.8382   -6.1405  -32.6615 H   0  0  0  0  0  0  0  0  0  0  0  0
  -22.0330   -5.3212  -34.2328 H   0  0  0  0  0  0  0  0  0  0  0  0
  -17.1594   -2.8795  -26.2733 H   0  0  0  0  0  0  0  0  0  0  0  0
  -17.2519   -6.6340  -24.6885 H   0  0  0  0  0  0  0  0  0  0  0  0
  -19.3469   -4.9709  -35.5275 H   0  0  0  0  0  0  0  0  0  0  0  0
  1  2  2  0  0  0  0
  1  3  1  0  0  0  0
  2  5  1  0  0  0  0
  2  7  1  0  0  0  0
  3  4  2  0  0  0  0
  3 12  1  0  0  0  0
  4  6  1  0  0  0  0
  4 27  1  0  0  0  0
  5  6  2  0  0  0  0
  5 32  1  0  0  0  0
  6 36  1  0  0  0  0
  7 23  2  0  0  0  0
  7 35  1  0  0  0  0
  8 19  1  0  0  0  0
  8 24  1  0  0  0  0
  8 28  2  0  0  0  0
  9 19  1  0  0  0  0
  9 25  1  0  0  0  0
  9 29  2  0  0  0  0
 10 24  1  0  0  0  0
 10 25  1  0  0  0  0
 10 30  2  0  0  0  0
 11 26  1  0  0  0  0
 11 31  2  0  0  0  0
 11 33  1  0  0  0  0
 12 19  1  0  0  0  0
 13 17  1  0  0  0  0
 13 27  1  0  0  0  0
 14 16  1  0  0  0  0
 14 33  1  0  0  0  0
 15 18  1  0  0  0  0
 15 19  1  0  0  0  0
 15 27  1  0  0  0  0
 16 22  1  0  0  0  0
 16 26  1  0  0  0  0
 17 20  1  0  0  0  0
 17 34  1  0  0  0  0
 18 21  1  0  0  0  0
 18 34  1  0  0  0  0
 22 35  1  0  0  0  0
 23 32  1  0  0  0  0
  1 37  1  0  0  0  0
 12 38  1  0  0  0  0
 12 39  1  0  0  0  0
 13 40  1  0  0  0  0
 13 41  1  0  0  0  0
 14 42  1  0  0  0  0
 14 43  1  0  0  0  0
 15 44  1  0  0  0  0
 16 45  1  0  0  0  0
 17 46  1  0  0  0  0
 18 47  1  0  0  0  0
 20 48  1  0  0  0  0
 20 49  1  0  0  0  0
 20 50  1  0  0  0  0
 21 51  1  0  0  0  0
 21 52  1  0  0  0  0
 21 53  1  0  0  0  0
 22 54  1  0  0  0  0
 22 55  1  0  0  0  0
 24 56  1  0  0  0  0
 25 57  1  0  0  0  0
 26 58  1  0  0  0  0
M  END
> <SMILES>
C[C@@H]1CN2[C@H]([C@H](C)O1)C1(Cc3cc4c(noc4c(c32)F)OC[C@H]2COC(=O)N2)C(=O)NC(=O)NC1=O

> <FORMATTED_ID>
H3D-006112

> <MOLFORMULA>
C22H22FN5O8

> <Exact Mass>
503.15

> <XLogP>
-0.35

> <TPSA_NOPS>
161.6

> <s_m_source_file>
ligprep_h3d.sdf

> <i_m_source_file_index>
992

> <i_lp_mmshare_version>
55123

> <i_f3d_flags>
0

> <s_epik_input>
Tz1DMVtOSF1DKD1PKVtOSF1DKD1PKUMxMltDQEBIXTNOKFtDSDJdW0NAQEhdKFtDSDNdKU9bQ0BIXTNbQ0gzXSljNGMoW0NIMl0yKVtjSF1jNWMoYzRGKW9uYzVPW0NIMl1bQ0BIXTZbQ0gyXU9DKD1PKVtOSF02

> <s_epik_cmdline>
J2VwaWtfcHl0aG9uJywgJy1waHQnLCAnMC41JywgJy1waCcsICc3LjUnLCAnLXRuJywgJzgnLCAnLW1hJywgJzUwMCcsICctaW1hZScsICc8aW5maWxlLm1hZT4nLCAnLW9tYWUnLCAnPG91dGZpbGUubWFlPic=

> <r_lp_tautomer_probability>
1

> <r_epik_Ionization_Penalty>
0.369129

> <r_epik_Ionization_Penalty_Charging>
0

> <r_epik_Ionization_Penalty_Neutral>
0.369129

> <r_epik_State_Penalty>
0.366447

> <r_epik_Charging_Adjusted_Penalty>
0.366447

> <i_epik_Tot_Q>
0

> <i_epik_Tot_abs_Q>
0

> <s_epik_Chemistry_Notes>
This compound has an ester and may undergo hydrolysis at high or low pH.

> <s_lp_Force_Field>
S-OPLS

> <r_lp_Energy>
32.5726

> <b_lp_Chiralities_Consistent>
1

> <s_lp_Variant>
ligprep_h3d.sdf:992-1

> <ROCS_ShapeQuery>
_7L13

> <ROCS_TanimotoCombo>
0.772 

> <ROCS_ShapeTanimoto>
0.670 

> <ROCS_ColorTanimoto>
0.102 

> <ROCS_RefTversky>
0.813 

> <ROCS_RefColorTversky>
0.248 

> <ROCS_RefTverskyCombo>
1.061 

> <ROCS_FitTversky>
0.792 

> <ROCS_FitColorTversky>
0.148 

> <ROCS_FitTverskyCombo>
0.940 

> <ROCS_ColorScore>
-2.319

> <ROCS_Overlap>
1352.391

> <ROCS_Rank>
92                  

$$$$
ligprep_h3d.sdf:2376_424
  -OEChem-08212117123D

101105  0     1  0  0  0  0  0999 V2000
  -23.8129   -3.6287  -23.4134 C   0  0  0  0  0  0  0  0  0  0  0  0
  -25.2727   -4.5667  -25.0788 C   0  0  0  0  0  0  0  0  0  0  0  0
  -24.3911   -4.4927  -22.4975 C   0  0  0  0  0  0  0  0  0  0  0  0
  -25.7854   -5.3889  -24.0883 C   0  0  0  0  0  0  0  0  0  0  0  0
  -24.2677   -3.6727  -24.7266 C   0  0  0  0  0  0  0  0  0  0  0  0
  -21.7233   -3.9755  -29.7164 C   0  0  0  0  0  0  0  0  0  0  0  0
  -18.6815   -5.4481  -25.9982 C   0  0  0  0  0  0  0  0  0  0  0  0
  -21.2819   -3.9419  -28.4535 C   0  0  0  0  0  0  0  0  0  0  0  0
  -17.3618   -5.1858  -26.0540 C   0  0  0  0  0  0  0  0  0  0  0  0
  -21.8984   -2.9837  -27.4840 C   0  0  0  0  0  0  0  0  0  0  0  0
  -23.5296   -0.8296  -30.0324 C   0  0  0  0  0  0  0  0  0  0  0  0
  -20.2533   -4.3213  -35.7836 C   0  0  0  0  0  0  0  0  0  0  0  0
  -19.9258   -8.5794  -36.0607 C   0  0  0  0  0  0  0  0  0  0  0  0
  -21.2719   -3.9699  -34.6880 C   0  0  0  0  0  0  0  0  0  0  0  0
  -19.7463   -7.9618  -34.6632 C   0  0  0  0  0  0  0  0  0  0  0  0
  -19.8400   -5.5211  -30.7519 C   0  0  0  0  0  0  0  0  0  0  0  0
  -22.7701   -3.3612  -31.8047 C   0  0  0  0  0  0  0  0  0  0  0  0
  -21.2206   -4.8726  -30.8218 C   0  0  2  0  0  0  0  0  0  0  0  0
  -22.7834   -3.0574  -30.2909 C   0  0  2  0  0  0  0  0  0  0  0  0
  -20.1169   -5.8367  -35.9256 C   0  0  1  0  0  0  0  0  0  0  0  0
  -19.8538   -5.6567  -33.3345 C   0  0  1  0  0  0  0  0  0  0  0  0
  -19.4793   -6.3358  -37.2553 C   0  0  1  0  0  0  0  0  0  0  0  0
  -19.1819   -7.8655  -37.1909 C   0  0  2  0  0  0  0  0  0  0  0  0
  -19.6109   -6.4129  -31.9886 C   0  0  2  0  0  0  0  0  0  0  0  0
  -19.4285   -6.4439  -34.6591 C   0  0  1  0  0  0  0  0  0  0  0  0
  -21.2334   -4.8747  -33.4059 C   0  0  1  0  0  0  0  0  0  0  0  0
  -21.3717   -3.9788  -32.0835 C   0  0  1  0  0  0  0  0  0  0  0  0
  -16.3659   -6.1885  -25.5338 C   0  0  0  0  0  0  0  0  0  0  0  0
  -16.7438   -3.9312  -26.6029 C   0  0  0  0  0  0  0  0  0  0  0  0
  -23.0466    0.5701  -29.8006 C   0  0  0  0  0  0  0  0  0  0  0  0
  -20.3445   -5.9636  -38.4704 C   0  0  0  0  0  0  0  0  0  0  0  0
  -17.8723   -6.2847  -34.7298 C   0  0  0  0  0  0  0  0  0  0  0  0
  -22.4233   -5.8734  -33.5191 C   0  0  0  0  0  0  0  0  0  0  0  0
  -20.3295   -2.8026  -32.0659 C   0  0  0  0  0  0  0  0  0  0  0  0
  -24.7111   -1.8169  -26.3854 C   0  0  0  0  0  0  0  0  0  0  0  0
  -19.8210   -4.5864  -26.4689 C   0  0  0  0  0  0  0  0  0  0  0  0
  -20.1178   -4.7678  -27.9638 C   0  0  0  0  0  0  0  0  0  0  0  0
  -23.6718   -2.7506  -25.7684 C   0  0  2  0  0  0  0  0  0  0  0  0
  -25.3692   -5.3748  -22.8022 N   0  0  0  0  0  0  0  0  0  0  0  0
  -22.9842   -3.4964  -26.7969 N   0  0  0  0  0  0  0  0  0  0  0  0
  -21.4060   -1.8719  -27.3083 O   0  0  0  0  0  0  0  0  0  0  0  0
  -24.7073   -1.1356  -30.1604 O   0  0  0  0  0  0  0  0  0  0  0  0
  -19.4898   -8.5144  -38.4241 O   0  0  0  0  0  0  0  0  0  0  0  0
  -20.4507   -7.5563  -31.8718 O   0  0  0  0  0  0  0  0  0  0  0  0
  -22.4662   -1.6901  -30.0762 O   0  0  0  0  0  0  0  0  0  0  0  0
  -23.0310   -2.9421  -23.1065 H   0  0  0  0  0  0  0  0  0  0  0  0
  -25.6482   -4.6247  -26.0946 H   0  0  0  0  0  0  0  0  0  0  0  0
  -24.0725   -4.4968  -21.4601 H   0  0  0  0  0  0  0  0  0  0  0  0
  -26.5706   -6.1035  -24.3118 H   0  0  0  0  0  0  0  0  0  0  0  0
  -18.9943   -6.4002  -25.5706 H   0  0  0  0  0  0  0  0  0  0  0  0
  -20.5980   -3.8584  -36.7097 H   0  0  0  0  0  0  0  0  0  0  0  0
  -19.2872   -3.8674  -35.5534 H   0  0  0  0  0  0  0  0  0  0  0  0
  -19.6199   -9.6387  -36.0380 H   0  0  0  0  0  0  0  0  0  0  0  0
  -21.0070   -8.5950  -36.2860 H   0  0  0  0  0  0  0  0  0  0  0  0
  -21.1211   -2.9171  -34.4559 H   0  0  0  0  0  0  0  0  0  0  0  0
  -22.2743   -4.0096  -35.1274 H   0  0  0  0  0  0  0  0  0  0  0  0
  -20.6647   -8.1513  -34.0842 H   0  0  0  0  0  0  0  0  0  0  0  0
  -18.9460   -8.5261  -34.1570 H   0  0  0  0  0  0  0  0  0  0  0  0
  -19.0522   -4.7628  -30.6858 H   0  0  0  0  0  0  0  0  0  0  0  0
  -19.7722   -6.1342  -29.8452 H   0  0  0  0  0  0  0  0  0  0  0  0
  -23.5689   -4.0818  -32.0080 H   0  0  0  0  0  0  0  0  0  0  0  0
  -22.9592   -2.4728  -32.4169 H   0  0  0  0  0  0  0  0  0  0  0  0
  -21.9508   -5.6874  -30.8383 H   0  0  0  0  0  0  0  0  0  0  0  0
  -23.7704   -3.2642  -29.8677 H   0  0  0  0  0  0  0  0  0  0  0  0
  -21.1435   -6.2002  -35.9859 H   0  0  0  0  0  0  0  0  0  0  0  0
  -19.1149   -4.8476  -33.2907 H   0  0  0  0  0  0  0  0  0  0  0  0
  -18.5178   -5.8027  -37.4110 H   0  0  0  0  0  0  0  0  0  0  0  0
  -18.0904   -8.0087  -37.0248 H   0  0  0  0  0  0  0  0  0  0  0  0
  -18.5739   -6.7729  -31.9562 H   0  0  0  0  0  0  0  0  0  0  0  0
  -16.0681   -6.8761  -26.3324 H   0  0  0  0  0  0  0  0  0  0  0  0
  -15.4569   -5.7142  -25.1489 H   0  0  0  0  0  0  0  0  0  0  0  0
  -16.8063   -6.7717  -24.7183 H   0  0  0  0  0  0  0  0  0  0  0  0
  -16.6075   -3.1451  -25.8581 H   0  0  0  0  0  0  0  0  0  0  0  0
  -17.3725   -3.5219  -27.4008 H   0  0  0  0  0  0  0  0  0  0  0  0
  -15.7565   -4.1519  -27.0228 H   0  0  0  0  0  0  0  0  0  0  0  0
  -23.0003    0.7736  -28.7280 H   0  0  0  0  0  0  0  0  0  0  0  0
  -23.7119    1.2794  -30.2993 H   0  0  0  0  0  0  0  0  0  0  0  0
  -22.0425    0.6813  -30.2202 H   0  0  0  0  0  0  0  0  0  0  0  0
  -21.3114   -6.4522  -38.3895 H   0  0  0  0  0  0  0  0  0  0  0  0
  -19.8492   -6.2892  -39.3807 H   0  0  0  0  0  0  0  0  0  0  0  0
  -20.4840   -4.8865  -38.4991 H   0  0  0  0  0  0  0  0  0  0  0  0
  -17.6478   -5.2323  -34.7271 H   0  0  0  0  0  0  0  0  0  0  0  0
  -17.5341   -6.7494  -35.6396 H   0  0  0  0  0  0  0  0  0  0  0  0
  -17.4513   -6.7717  -33.8674 H   0  0  0  0  0  0  0  0  0  0  0  0
  -22.4156   -6.5063  -32.6462 H   0  0  0  0  0  0  0  0  0  0  0  0
  -22.2881   -6.4577  -34.4150 H   0  0  0  0  0  0  0  0  0  0  0  0
  -23.3372   -5.3036  -33.5693 H   0  0  0  0  0  0  0  0  0  0  0  0
  -19.3601   -3.2245  -32.2584 H   0  0  0  0  0  0  0  0  0  0  0  0
  -20.3703   -2.3470  -31.0936 H   0  0  0  0  0  0  0  0  0  0  0  0
  -20.6117   -2.1070  -32.8349 H   0  0  0  0  0  0  0  0  0  0  0  0
  -25.5113   -2.3845  -26.8730 H   0  0  0  0  0  0  0  0  0  0  0  0
  -25.1651   -1.1845  -25.6141 H   0  0  0  0  0  0  0  0  0  0  0  0
  -24.2690   -1.1471  -27.1315 H   0  0  0  0  0  0  0  0  0  0  0  0
  -20.7316   -4.7399  -25.8833 H   0  0  0  0  0  0  0  0  0  0  0  0
  -19.5353   -3.5404  -26.2982 H   0  0  0  0  0  0  0  0  0  0  0  0
  -19.2222   -4.4975  -28.5377 H   0  0  0  0  0  0  0  0  0  0  0  0
  -20.2926   -5.8318  -28.1716 H   0  0  0  0  0  0  0  0  0  0  0  0
  -22.9014   -2.1271  -25.2982 H   0  0  0  0  0  0  0  0  0  0  0  0
  -23.3097   -4.4313  -27.0238 H   0  0  0  0  0  0  0  0  0  0  0  0
  -19.1927   -9.4314  -38.3301 H   0  0  0  0  0  0  0  0  0  0  0  0
  -20.1904   -8.0083  -31.0541 H   0  0  0  0  0  0  0  0  0  0  0  0
  1  3  1  0  0  0  0
  1  5  2  0  0  0  0
  2  4  2  0  0  0  0
  2  5  1  0  0  0  0
  3 39  2  0  0  0  0
  4 39  1  0  0  0  0
  5 38  1  0  0  0  0
  6  8  2  0  0  0  0
  6 18  1  0  0  0  0
  6 19  1  0  0  0  0
  7  9  2  0  0  0  0
  7 36  1  0  0  0  0
  8 10  1  0  0  0  0
  8 37  1  0  0  0  0
  9 28  1  0  0  0  0
  9 29  1  0  0  0  0
 10 40  1  0  0  0  0
 10 41  2  0  0  0  0
 11 30  1  0  0  0  0
 11 42  2  0  0  0  0
 11 45  1  0  0  0  0
 12 14  1  0  0  0  0
 12 20  1  0  0  0  0
 13 15  1  0  0  0  0
 13 23  1  0  0  0  0
 14 26  1  0  0  0  0
 15 25  1  0  0  0  0
 16 18  1  0  0  0  0
 16 24  1  0  0  0  0
 17 19  1  0  0  0  0
 17 27  1  0  0  0  0
 18 27  1  0  0  0  0
 19 45  1  0  0  0  0
 20 22  1  0  0  0  0
 20 25  1  0  0  0  0
 21 24  1  0  0  0  0
 21 25  1  0  0  0  0
 21 26  1  0  0  0  0
 22 23  1  0  0  0  0
 22 31  1  0  0  0  0
 23 43  1  0  0  0  0
 24 44  1  0  0  0  0
 25 32  1  0  0  0  0
 26 27  1  0  0  0  0
 26 33  1  0  0  0  0
 27 34  1  0  0  0  0
 35 38  1  0  0  0  0
 36 37  1  0  0  0  0
 38 40  1  0  0  0  0
  1 46  1  0  0  0  0
  2 47  1  0  0  0  0
  3 48  1  0  0  0  0
  4 49  1  0  0  0  0
  7 50  1  0  0  0  0
 12 51  1  0  0  0  0
 12 52  1  0  0  0  0
 13 53  1  0  0  0  0
 13 54  1  0  0  0  0
 14 55  1  0  0  0  0
 14 56  1  0  0  0  0
 15 57  1  0  0  0  0
 15 58  1  0  0  0  0
 16 59  1  0  0  0  0
 16 60  1  0  0  0  0
 17 61  1  0  0  0  0
 17 62  1  0  0  0  0
 18 63  1  0  0  0  0
 19 64  1  0  0  0  0
 20 65  1  0  0  0  0
 21 66  1  0  0  0  0
 22 67  1  0  0  0  0
 23 68  1  0  0  0  0
 24 69  1  0  0  0  0
 28 70  1  0  0  0  0
 28 71  1  0  0  0  0
 28 72  1  0  0  0  0
 29 73  1  0  0  0  0
 29 74  1  0  0  0  0
 29 75  1  0  0  0  0
 30 76  1  0  0  0  0
 30 77  1  0  0  0  0
 30 78  1  0  0  0  0
 31 79  1  0  0  0  0
 31 80  1  0  0  0  0
 31 81  1  0  0  0  0
 32 82  1  0  0  0  0
 32 83  1  0  0  0  0
 32 84  1  0  0  0  0
 33 85  1  0  0  0  0
 33 86  1  0  0  0  0
 33 87  1  0  0  0  0
 34 88  1  0  0  0  0
 34 89  1  0  0  0  0
 34 90  1  0  0  0  0
 35 91  1  0  0  0  0
 35 92  1  0  0  0  0
 35 93  1  0  0  0  0
 36 94  1  0  0  0  0
 36 95  1  0  0  0  0
 37 96  1  0  0  0  0
 37 97  1  0  0  0  0
 38 98  1  0  0  0  0
 40 99  1  0  0  0  0
 43100  1  0  0  0  0
 44101  1  0  0  0  0
M  END
> <SMILES>
CC(NC(=O)/C(=C/1\[C@H](C[C@@]2(C)[C@H]1C[C@@H](O)[C@H]1[C@@]3(C)CC[C@@H](O)[C@@H](C)[C@@H]3CC[C@@]12C)OC(=O)C)CCC=C(C)C)c1ccncc1

> <FORMATTED_ID>
H3D-005465

> <MOLFORMULA>
C38H56N2O5

> <Exact Mass>
620.42

> <XLogP>
6.24

> <TPSA_NOPS>
108.7

> <s_m_source_file>
ligprep_h3d.sdf

> <i_m_source_file_index>
2376

> <i_lp_mmshare_version>
55123

> <i_f3d_flags>
0

> <s_epik_input>
W2NIXTFbY0hdbltjSF1bY0hdYzFbQ0BIXShbQ0gzXSlbTkhdQyg9TykvQyhbQ0gyXVtDSDJdW0NIXT1DKFtDSDNdKVtDSDNdKT1DKFxbQ0BIXShbQ0gyXTIpT0MoPU8pW0NIM10pW0NAQEhdKFtDQF0yM1tDSDNdKVtDSDJdW0NAQEhdKFtPSF0pW0NASF00W0NAXTUoW0NIM10pW0NASF0oW0NASF0oW0NIM10pW0NASF0oW09IXSlbQ0gyXVtDSDJdNSlbQ0gyXVtDSDJdW0NAXTM0W0NIM10=

> <s_epik_cmdline>
J2VwaWtfcHl0aG9uJywgJy1waHQnLCAnMC41JywgJy1waCcsICc3LjUnLCAnLXRuJywgJzgnLCAnLW1hJywgJzUwMCcsICctaW1hZScsICc8aW5maWxlLm1hZT4nLCAnLW9tYWUnLCAnPG91dGZpbGUubWFlPic=

> <r_lp_tautomer_probability>
1

> <r_epik_Ionization_Penalty>
0.00722765

> <r_epik_Ionization_Penalty_Charging>
0

> <r_epik_Ionization_Penalty_Neutral>
0.00722765

> <r_epik_State_Penalty>
-0

> <r_epik_Charging_Adjusted_Penalty>
0

> <i_epik_Tot_Q>
0

> <i_epik_Tot_abs_Q>
0

> <s_epik_Chemistry_Notes>
This compound has an ester and may undergo hydrolysis at high or low pH.

> <s_lp_Force_Field>
S-OPLS

> <r_lp_Energy>
87.4727

> <b_lp_Chiralities_Consistent>
1

> <s_lp_Variant>
ligprep_h3d.sdf:2376-1

> <ROCS_ShapeQuery>
_7L13

> <ROCS_TanimotoCombo>
0.695 

> <ROCS_ShapeTanimoto>
0.599 

> <ROCS_ColorTanimoto>
0.096 

> <ROCS_RefTversky>
0.813 

> <ROCS_RefColorTversky>
0.226 

> <ROCS_RefTverskyCombo>
1.039 

> <ROCS_FitTversky>
0.695 

> <ROCS_FitColorTversky>
0.143 

> <ROCS_FitTverskyCombo>
0.838 

> <ROCS_ColorScore>
-2.101

> <ROCS_Overlap>
1362.729

> <ROCS_Rank>
93                  

$$$$
ligprep_h3d.sdf:5065_685
  -OEChem-08212117123D

 70 74  0     1  0  0  0  0  0999 V2000
  -21.8900   -6.1975  -32.3890 C   0  0  0  0  0  0  0  0  0  0  0  0
  -24.8429   -3.9848  -25.1193 C   0  0  0  0  0  0  0  0  0  0  0  0
  -23.4348   -4.8132  -23.3394 C   0  0  0  0  0  0  0  0  0  0  0  0
  -20.6526   -6.7804  -32.6621 C   0  0  0  0  0  0  0  0  0  0  0  0
  -25.9762   -4.3075  -24.3730 C   0  0  0  0  0  0  0  0  0  0  0  0
  -24.5681   -5.1359  -22.5931 C   0  0  0  0  0  0  0  0  0  0  0  0
  -21.0494   -4.0608  -33.1407 C   0  0  0  0  0  0  0  0  0  0  0  0
  -18.4087   -6.1928  -25.9048 C   0  0  0  0  0  0  0  0  0  0  0  0
  -17.6863   -3.9210  -26.2972 C   0  0  0  0  0  0  0  0  0  0  0  0
  -16.3597   -5.3878  -24.9095 C   0  0  0  0  0  0  0  0  0  0  0  0
  -22.0884   -4.8377  -32.6284 C   0  0  0  0  0  0  0  0  0  0  0  0
  -19.8120   -4.6437  -33.4138 C   0  0  0  0  0  0  0  0  0  0  0  0
  -18.6101   -4.9466  -26.4982 C   0  0  0  0  0  0  0  0  0  0  0  0
  -23.5722   -4.2377  -24.6026 C   0  0  0  0  0  0  0  0  0  0  0  0
  -19.6135   -6.0035  -33.1745 C   0  0  0  0  0  0  0  0  0  0  0  0
  -25.8389   -4.8831  -23.1098 C   0  0  0  0  0  0  0  0  0  0  0  0
  -17.2835   -6.4134  -25.1104 C   0  0  0  0  0  0  0  0  0  0  0  0
  -16.5611   -4.1416  -25.5029 C   0  0  0  0  0  0  0  0  0  0  0  0
  -23.3048   -3.0969  -31.3067 C   0  0  0  0  0  0  0  0  0  0  0  0
  -23.1564   -2.7911  -28.8504 C   0  0  0  0  0  0  0  0  0  0  0  0
  -20.8216   -5.5763  -27.6637 C   0  0  0  0  0  0  0  0  0  0  0  0
  -20.0464   -3.7032  -28.2404 C   0  0  0  0  0  0  0  0  0  0  0  0
  -21.8596   -4.5859  -29.8476 C   0  0  0  0  0  0  0  0  0  0  0  0
  -22.6734   -3.7097  -27.7361 C   0  0  1  0  0  0  0  0  0  0  0  0
  -21.4459   -4.3632  -28.3902 C   0  0  0  0  0  0  0  0  0  0  0  0
  -24.5016   -5.1807  -31.7634 C   0  0  0  0  0  0  0  0  0  0  0  0
  -24.0327   -3.6173  -33.6400 C   0  0  0  0  0  0  0  0  0  0  0  0
  -22.4221   -2.9838  -26.4277 C   0  0  0  0  0  0  0  0  0  0  0  0
  -23.4537   -4.1958  -32.3284 C   0  0  0  0  0  0  0  0  0  0  0  0
  -18.7111   -3.7976  -33.9633 C   0  0  0  0  0  0  0  0  0  0  0  0
  -19.7403   -4.7248  -27.2970 N   0  0  0  0  0  0  0  0  0  0  0  0
  -22.7935   -3.4852  -30.0789 N   0  0  0  0  0  0  0  0  0  0  0  0
  -22.4373   -3.9145  -25.3500 N   0  0  0  0  0  0  0  0  0  0  0  0
  -23.6230   -1.9397  -31.5863 O   0  0  0  0  0  0  0  0  0  0  0  0
  -18.4108   -6.5890  -33.4339 O   0  0  0  0  0  0  0  0  0  0  0  0
  -26.9272   -5.1930  -22.3931 F   0  0  0  0  0  0  0  0  0  0  0  0
  -17.0896   -7.6108  -24.5423 F   0  0  0  0  0  0  0  0  0  0  0  0
  -15.6730   -3.1573  -25.3115 F   0  0  0  0  0  0  0  0  0  0  0  0
  -19.0643   -2.4908  -34.1415 F   0  0  0  0  0  0  0  0  0  0  0  0
  -17.6018   -3.7629  -33.1684 F   0  0  0  0  0  0  0  0  0  0  0  0
  -18.2769   -4.2304  -35.1819 F   0  0  0  0  0  0  0  0  0  0  0  0
  -22.6943   -6.8102  -31.9905 H   0  0  0  0  0  0  0  0  0  0  0  0
  -24.9615   -3.5363  -26.1024 H   0  0  0  0  0  0  0  0  0  0  0  0
  -22.4494   -5.0148  -22.9272 H   0  0  0  0  0  0  0  0  0  0  0  0
  -20.5058   -7.8408  -32.4749 H   0  0  0  0  0  0  0  0  0  0  0  0
  -26.9657   -4.1106  -24.7749 H   0  0  0  0  0  0  0  0  0  0  0  0
  -24.4618   -5.5843  -21.6097 H   0  0  0  0  0  0  0  0  0  0  0  0
  -21.2053   -3.0008  -33.3274 H   0  0  0  0  0  0  0  0  0  0  0  0
  -19.1216   -6.9990  -26.0555 H   0  0  0  0  0  0  0  0  0  0  0  0
  -17.8330   -2.9465  -26.7557 H   0  0  0  0  0  0  0  0  0  0  0  0
  -15.4831   -5.5607  -24.2921 H   0  0  0  0  0  0  0  0  0  0  0  0
  -24.2474   -2.7083  -28.8445 H   0  0  0  0  0  0  0  0  0  0  0  0
  -22.7300   -1.7863  -28.8241 H   0  0  0  0  0  0  0  0  0  0  0  0
  -21.3703   -5.9467  -26.7874 H   0  0  0  0  0  0  0  0  0  0  0  0
  -20.5084   -6.4247  -28.2827 H   0  0  0  0  0  0  0  0  0  0  0  0
  -19.4048   -3.7249  -29.1230 H   0  0  0  0  0  0  0  0  0  0  0  0
  -20.0429   -2.7072  -27.7888 H   0  0  0  0  0  0  0  0  0  0  0  0
  -21.0166   -4.4599  -30.5352 H   0  0  0  0  0  0  0  0  0  0  0  0
  -22.3392   -5.5509  -30.0346 H   0  0  0  0  0  0  0  0  0  0  0  0
  -23.4753   -4.4906  -27.5432 H   0  0  0  0  0  0  0  0  0  0  0  0
  -25.4593   -4.6846  -31.5633 H   0  0  0  0  0  0  0  0  0  0  0  0
  -24.1611   -5.6445  -30.8299 H   0  0  0  0  0  0  0  0  0  0  0  0
  -24.7026   -5.9961  -32.4700 H   0  0  0  0  0  0  0  0  0  0  0  0
  -25.0096   -3.1486  -33.4699 H   0  0  0  0  0  0  0  0  0  0  0  0
  -23.3693   -2.8545  -34.0658 H   0  0  0  0  0  0  0  0  0  0  0  0
  -24.1695   -4.3874  -34.4084 H   0  0  0  0  0  0  0  0  0  0  0  0
  -21.4482   -2.5042  -26.5071 H   0  0  0  0  0  0  0  0  0  0  0  0
  -23.2151   -2.2474  -26.3102 H   0  0  0  0  0  0  0  0  0  0  0  0
  -21.5687   -4.3897  -25.0912 H   0  0  0  0  0  0  0  0  0  0  0  0
  -18.4428   -7.5325  -33.2115 H   0  0  0  0  0  0  0  0  0  0  0  0
  1  4  1  0  0  0  0
  1 11  2  0  0  0  0
  2  5  1  0  0  0  0
  2 14  2  0  0  0  0
  3  6  2  0  0  0  0
  3 14  1  0  0  0  0
  4 15  2  0  0  0  0
  5 16  2  0  0  0  0
  6 16  1  0  0  0  0
  7 11  1  0  0  0  0
  7 12  2  0  0  0  0
  8 13  2  0  0  0  0
  8 17  1  0  0  0  0
  9 13  1  0  0  0  0
  9 18  2  0  0  0  0
 10 17  2  0  0  0  0
 10 18  1  0  0  0  0
 11 29  1  0  0  0  0
 12 15  1  0  0  0  0
 12 30  1  0  0  0  0
 13 31  1  0  0  0  0
 14 33  1  0  0  0  0
 15 35  1  0  0  0  0
 16 36  1  0  0  0  0
 17 37  1  0  0  0  0
 18 38  1  0  0  0  0
 19 29  1  0  0  0  0
 19 32  1  0  0  0  0
 19 34  2  0  0  0  0
 20 24  1  0  0  0  0
 20 32  1  0  0  0  0
 21 25  1  0  0  0  0
 21 31  1  0  0  0  0
 22 25  1  0  0  0  0
 22 31  1  0  0  0  0
 23 25  1  0  0  0  0
 23 32  1  0  0  0  0
 24 25  1  0  0  0  0
 24 28  1  0  0  0  0
 26 29  1  0  0  0  0
 27 29  1  0  0  0  0
 28 33  1  0  0  0  0
 30 39  1  0  0  0  0
 30 40  1  0  0  0  0
 30 41  1  0  0  0  0
  1 42  1  0  0  0  0
  2 43  1  0  0  0  0
  3 44  1  0  0  0  0
  4 45  1  0  0  0  0
  5 46  1  0  0  0  0
  6 47  1  0  0  0  0
  7 48  1  0  0  0  0
  8 49  1  0  0  0  0
  9 50  1  0  0  0  0
 10 51  1  0  0  0  0
 20 52  1  0  0  0  0
 20 53  1  0  0  0  0
 21 54  1  0  0  0  0
 21 55  1  0  0  0  0
 22 56  1  0  0  0  0
 22 57  1  0  0  0  0
 23 58  1  0  0  0  0
 23 59  1  0  0  0  0
 24 60  1  0  0  0  0
 26 61  1  0  0  0  0
 26 62  1  0  0  0  0
 26 63  1  0  0  0  0
 27 64  1  0  0  0  0
 27 65  1  0  0  0  0
 27 66  1  0  0  0  0
 28 67  1  0  0  0  0
 28 68  1  0  0  0  0
 33 69  1  0  0  0  0
 35 70  1  0  0  0  0
M  END
> <SMILES>
CC(C)(C(=O)N1CC(CNc2ccc(cc2)F)C2(C1)CN(C2)c1cc(cc(c1)F)F)c1ccc(c(c1)C(F)(F)F)O

> <FORMATTED_ID>
H3D-009456

> <MOLFORMULA>
C30H29F6N3O2

> <Exact Mass>
577.22

> <XLogP>
6.48

> <TPSA_NOPS>
55.8

> <s_m_source_file>
ligprep_h3d.sdf

> <i_m_source_file_index>
5065

> <i_lp_mmshare_version>
55123

> <i_f3d_flags>
0

> <s_epik_input>
RkMoRikoRiljKFtjSF0xKWMoW09IXSlbY0hdW2NIXWMxQyhbQ0gzXSkoW0NIM10pQyg9TylOKFtDSDJdMilbQ0gyXVtDQEhdKFtDSDJdW05IXWMzW2NIXVtjSF1jKEYpW2NIXVtjSF0zKUMyNFtDSDJdTihbQ0gyXTQpYzVbY0hdYyhGKVtjSF1jKEYpW2NIXTU=

> <s_epik_cmdline>
J2VwaWtfcHl0aG9uJywgJy1waHQnLCAnMC41JywgJy1waCcsICc3LjUnLCAnLXRuJywgJzgnLCAnLW1hJywgJzUwMCcsICctaW1hZScsICc8aW5maWxlLm1hZT4nLCAnLW9tYWUnLCAnPG91dGZpbGUubWFlPic=

> <r_lp_tautomer_probability>
1

> <r_epik_Ionization_Penalty>
0.0870159

> <r_epik_Ionization_Penalty_Charging>
0

> <r_epik_Ionization_Penalty_Neutral>
0.0870159

> <r_epik_State_Penalty>
0.0751931

> <r_epik_Charging_Adjusted_Penalty>
0.0751931

> <i_epik_Tot_Q>
0

> <i_epik_Tot_abs_Q>
0

> <s_lp_Force_Field>
S-OPLS

> <r_lp_Energy>
52.6798

> <b_lp_Chiralities_Consistent>
1

> <s_lp_Variant>
ligprep_h3d.sdf:5065-1

> <ROCS_ShapeQuery>
_7L13

> <ROCS_TanimotoCombo>
0.685 

> <ROCS_ShapeTanimoto>
0.621 

> <ROCS_ColorTanimoto>
0.064 

> <ROCS_RefTversky>
0.813 

> <ROCS_RefColorTversky>
0.127 

> <ROCS_RefTverskyCombo>
0.940 

> <ROCS_FitTversky>
0.724 

> <ROCS_FitColorTversky>
0.116 

> <ROCS_FitTverskyCombo>
0.840 

> <ROCS_ColorScore>
-1.151

> <ROCS_Overlap>
1358.777

> <ROCS_Rank>
94                  

$$$$
ligprep_h3d.sdf:2718_686
  -OEChem-08212117123D

115119  0     1  0  0  0  0  0999 V2000
  -23.5403   -3.4923  -24.5053 C   0  0  0  0  0  0  0  0  0  0  0  0
  -24.4190   -3.3499  -23.4315 C   0  0  0  0  0  0  0  0  0  0  0  0
  -24.4852   -5.6622  -24.9908 C   0  0  0  0  0  0  0  0  0  0  0  0
  -25.3640   -5.5198  -23.9169 C   0  0  0  0  0  0  0  0  0  0  0  0
  -23.5734   -4.6485  -25.2850 C   0  0  0  0  0  0  0  0  0  0  0  0
  -25.3308   -4.3636  -23.1373 C   0  0  0  0  0  0  0  0  0  0  0  0
  -21.7338   -4.5911  -29.4208 C   0  0  0  0  0  0  0  0  0  0  0  0
  -17.9156   -3.9702  -26.2135 C   0  0  0  0  0  0  0  0  0  0  0  0
  -21.2191   -4.3055  -28.2190 C   0  0  0  0  0  0  0  0  0  0  0  0
  -17.1828   -4.9498  -25.6505 C   0  0  0  0  0  0  0  0  0  0  0  0
  -22.1230   -3.7826  -27.1446 C   0  0  0  0  0  0  0  0  0  0  0  0
  -24.9133   -2.8535  -29.2689 C   0  0  0  0  0  0  0  0  0  0  0  0
  -21.3866   -4.9194  -35.7351 C   0  0  0  0  0  0  0  0  0  0  0  0
  -18.3688   -7.4117  -36.2932 C   0  0  0  0  0  0  0  0  0  0  0  0
  -21.8673   -4.3731  -34.3931 C   0  0  0  0  0  0  0  0  0  0  0  0
  -18.8594   -6.9997  -34.9021 C   0  0  0  0  0  0  0  0  0  0  0  0
  -19.4711   -5.0119  -30.7213 C   0  0  0  0  0  0  0  0  0  0  0  0
  -23.1849   -4.5806  -31.3539 C   0  0  0  0  0  0  0  0  0  0  0  0
  -20.9888   -5.1229  -30.6198 C   0  0  2  0  0  0  0  0  0  0  0  0
  -23.1731   -4.3521  -29.8255 C   0  0  2  0  0  0  0  0  0  0  0  0
  -19.8576   -4.8263  -35.8929 C   0  0  2  0  0  0  0  0  0  0  0  0
  -19.6895   -5.0709  -33.2983 C   0  0  1  0  0  0  0  0  0  0  0  0
  -19.3589   -5.2996  -37.2964 C   0  0  1  0  0  0  0  0  0  0  0  0
  -19.2051   -6.8242  -37.4248 C   0  0  2  0  0  0  0  0  0  0  0  0
  -18.9688   -5.6421  -32.0366 C   0  0  2  0  0  0  0  0  0  0  0  0
  -19.0452   -5.4729  -34.7047 C   0  0  1  0  0  0  0  0  0  0  0  0
  -21.2764   -5.1289  -33.1799 C   0  0  1  0  0  0  0  0  0  0  0  0
  -21.7039   -4.4198  -31.8053 C   0  0  1  0  0  0  0  0  0  0  0  0
  -15.6995   -4.9068  -25.4156 C   0  0  0  0  0  0  0  0  0  0  0  0
  -17.8435   -6.2225  -25.1901 C   0  0  0  0  0  0  0  0  0  0  0  0
  -25.1913   -1.4166  -28.9464 C   0  0  0  0  0  0  0  0  0  0  0  0
  -20.1835   -4.7308  -38.4585 C   0  0  0  0  0  0  0  0  0  0  0  0
  -17.6084   -4.8470  -34.7344 C   0  0  0  0  0  0  0  0  0  0  0  0
  -21.8463   -6.5736  -33.2345 C   0  0  0  0  0  0  0  0  0  0  0  0
  -21.4071   -2.8805  -31.8327 C   0  0  0  0  0  0  0  0  0  0  0  0
  -27.9385   -6.6413  -26.1006 C   0  0  0  0  0  0  0  0  0  0  0  0
  -28.3872   -7.7565  -21.9064 C   0  0  0  0  0  0  0  0  0  0  0  0
  -26.3335   -6.6148  -23.6163 C   0  0  0  0  0  0  0  0  0  0  0  0
  -19.3966   -3.9493  -26.4765 C   0  0  0  0  0  0  0  0  0  0  0  0
  -19.7476   -4.3974  -27.9022 C   0  0  0  0  0  0  0  0  0  0  0  0
  -28.1078   -5.5866  -25.0289 C   0  0  0  0  0  0  0  0  0  0  0  0
  -28.7138   -7.2770  -23.3039 C   0  0  0  0  0  0  0  0  0  0  0  0
  -22.6815   -4.7926  -26.3748 N   0  0  0  0  0  0  0  0  0  0  0  0
  -27.7550   -6.1796  -23.6888 N   0  3  0  0  0  0  0  0  0  0  0  0
  -22.2454   -2.5705  -27.0018 O   0  0  0  0  0  0  0  0  0  0  0  0
  -25.7710   -3.7253  -29.3078 O   0  0  0  0  0  0  0  0  0  0  0  0
  -26.1821   -4.2081  -22.0848 O   0  0  0  0  0  0  0  0  0  0  0  0
  -20.4668   -7.4790  -37.5076 O   0  0  0  0  0  0  0  0  0  0  0  0
  -19.1243   -7.0550  -31.9587 O   0  0  0  0  0  0  0  0  0  0  0  0
  -23.5770   -3.0296  -29.5067 O   0  0  0  0  0  0  0  0  0  0  0  0
  -22.8339   -2.6958  -24.7254 H   0  0  0  0  0  0  0  0  0  0  0  0
  -24.3880   -2.4466  -22.8281 H   0  0  0  0  0  0  0  0  0  0  0  0
  -24.5123   -6.5644  -25.5980 H   0  0  0  0  0  0  0  0  0  0  0  0
  -17.3993   -3.0612  -26.5211 H   0  0  0  0  0  0  0  0  0  0  0  0
  -21.7394   -5.9416  -35.8880 H   0  0  0  0  0  0  0  0  0  0  0  0
  -21.8747   -4.3164  -36.5093 H   0  0  0  0  0  0  0  0  0  0  0  0
  -17.3228   -7.1093  -36.4188 H   0  0  0  0  0  0  0  0  0  0  0  0
  -18.3858   -8.5074  -36.3518 H   0  0  0  0  0  0  0  0  0  0  0  0
  -21.5936   -3.3128  -34.3641 H   0  0  0  0  0  0  0  0  0  0  0  0
  -22.9636   -4.4083  -34.3627 H   0  0  0  0  0  0  0  0  0  0  0  0
  -19.7853   -7.5392  -34.7154 H   0  0  0  0  0  0  0  0  0  0  0  0
  -18.1341   -7.3897  -34.1783 H   0  0  0  0  0  0  0  0  0  0  0  0
  -19.1503   -3.9656  -30.6634 H   0  0  0  0  0  0  0  0  0  0  0  0
  -19.0122   -5.5337  -29.8725 H   0  0  0  0  0  0  0  0  0  0  0  0
  -23.5493   -5.5972  -31.5261 H   0  0  0  0  0  0  0  0  0  0  0  0
  -23.8548   -3.8921  -31.8800 H   0  0  0  0  0  0  0  0  0  0  0  0
  -21.2281   -6.1948  -30.6208 H   0  0  0  0  0  0  0  0  0  0  0  0
  -23.8464   -5.0570  -29.3260 H   0  0  0  0  0  0  0  0  0  0  0  0
  -19.6447   -3.7458  -35.8585 H   0  0  0  0  0  0  0  0  0  0  0  0
  -19.4587   -3.9990  -33.2553 H   0  0  0  0  0  0  0  0  0  0  0  0
  -18.3580   -4.8803  -37.4339 H   0  0  0  0  0  0  0  0  0  0  0  0
  -18.6771   -7.0449  -38.3850 H   0  0  0  0  0  0  0  0  0  0  0  0
  -17.8944   -5.4463  -32.0977 H   0  0  0  0  0  0  0  0  0  0  0  0
  -15.4886   -4.4815  -24.4288 H   0  0  0  0  0  0  0  0  0  0  0  0
  -15.2181   -5.8852  -25.4591 H   0  0  0  0  0  0  0  0  0  0  0  0
  -15.2185   -4.2758  -26.1705 H   0  0  0  0  0  0  0  0  0  0  0  0
  -17.8539   -6.9585  -26.0008 H   0  0  0  0  0  0  0  0  0  0  0  0
  -17.3284   -6.6764  -24.3370 H   0  0  0  0  0  0  0  0  0  0  0  0
  -18.8767   -6.0244  -24.8863 H   0  0  0  0  0  0  0  0  0  0  0  0
  -25.1078   -1.2554  -27.8688 H   0  0  0  0  0  0  0  0  0  0  0  0
  -26.1883   -1.1430  -29.3009 H   0  0  0  0  0  0  0  0  0  0  0  0
  -24.4567   -0.7829  -29.4517 H   0  0  0  0  0  0  0  0  0  0  0  0
  -21.2024   -5.1025  -38.3955 H   0  0  0  0  0  0  0  0  0  0  0  0
  -19.7424   -5.0413  -39.4015 H   0  0  0  0  0  0  0  0  0  0  0  0
  -20.1895   -3.6458  -38.4012 H   0  0  0  0  0  0  0  0  0  0  0  0
  -17.7094   -3.7845  -34.5991 H   0  0  0  0  0  0  0  0  0  0  0  0
  -17.1697   -5.0753  -35.6898 H   0  0  0  0  0  0  0  0  0  0  0  0
  -17.0412   -5.2870  -33.9330 H   0  0  0  0  0  0  0  0  0  0  0  0
  -21.4511   -7.1295  -32.3972 H   0  0  0  0  0  0  0  0  0  0  0  0
  -21.5412   -7.0270  -34.1660 H   0  0  0  0  0  0  0  0  0  0  0  0
  -22.9235   -6.5191  -33.1765 H   0  0  0  0  0  0  0  0  0  0  0  0
  -20.3857   -2.7482  -32.1431 H   0  0  0  0  0  0  0  0  0  0  0  0
  -21.5624   -2.4983  -30.8392 H   0  0  0  0  0  0  0  0  0  0  0  0
  -22.0866   -2.4273  -32.5328 H   0  0  0  0  0  0  0  0  0  0  0  0
  -26.8962   -6.9716  -26.1444 H   0  0  0  0  0  0  0  0  0  0  0  0
  -28.5629   -7.5172  -25.8960 H   0  0  0  0  0  0  0  0  0  0  0  0
  -28.2117   -6.2511  -27.0866 H   0  0  0  0  0  0  0  0  0  0  0  0
  -27.3746   -8.1704  -21.8759 H   0  0  0  0  0  0  0  0  0  0  0  0
  -28.4392   -6.9354  -21.1840 H   0  0  0  0  0  0  0  0  0  0  0  0
  -29.0824   -8.5386  -21.5836 H   0  0  0  0  0  0  0  0  0  0  0  0
  -26.2296   -7.4500  -24.3213 H   0  0  0  0  0  0  0  0  0  0  0  0
  -26.1848   -7.0182  -22.6061 H   0  0  0  0  0  0  0  0  0  0  0  0
  -19.9601   -4.5403  -25.7494 H   0  0  0  0  0  0  0  0  0  0  0  0
  -19.7402   -2.9152  -26.3459 H   0  0  0  0  0  0  0  0  0  0  0  0
  -19.3892   -5.4237  -28.0577 H   0  0  0  0  0  0  0  0  0  0  0  0
  -19.1898   -3.7771  -28.6151 H   0  0  0  0  0  0  0  0  0  0  0  0
  -29.1423   -5.2384  -24.9639 H   0  0  0  0  0  0  0  0  0  0  0  0
  -27.4398   -4.7359  -25.1897 H   0  0  0  0  0  0  0  0  0  0  0  0
  -29.7221   -6.8579  -23.3624 H   0  0  0  0  0  0  0  0  0  0  0  0
  -28.6010   -8.0758  -24.0421 H   0  0  0  0  0  0  0  0  0  0  0  0
  -22.4148   -5.7521  -26.5854 H   0  0  0  0  0  0  0  0  0  0  0  0
  -27.8858   -5.4251  -22.9954 H   0  0  0  0  0  0  0  0  0  0  0  0
  -26.0277   -3.3536  -21.6526 H   0  0  0  0  0  0  0  0  0  0  0  0
  -20.2811   -8.4157  -37.6759 H   0  0  0  0  0  0  0  0  0  0  0  0
  -18.5929   -7.3517  -31.2031 H   0  0  0  0  0  0  0  0  0  0  0  0
  1  2  1  0  0  0  0
  1  5  2  0  0  0  0
  2  6  2  0  0  0  0
  3  4  2  0  0  0  0
  3  5  1  0  0  0  0
  4  6  1  0  0  0  0
  4 38  1  0  0  0  0
  5 43  1  0  0  0  0
  6 47  1  0  0  0  0
  7  9  2  0  0  0  0
  7 19  1  0  0  0  0
  7 20  1  0  0  0  0
  8 10  2  0  0  0  0
  8 39  1  0  0  0  0
  9 11  1  0  0  0  0
  9 40  1  0  0  0  0
 10 29  1  0  0  0  0
 10 30  1  0  0  0  0
 11 43  1  0  0  0  0
 11 45  2  0  0  0  0
 12 31  1  0  0  0  0
 12 46  2  0  0  0  0
 12 50  1  0  0  0  0
 13 15  1  0  0  0  0
 13 21  1  0  0  0  0
 14 16  1  0  0  0  0
 14 24  1  0  0  0  0
 15 27  1  0  0  0  0
 16 26  1  0  0  0  0
 17 19  1  0  0  0  0
 17 25  1  0  0  0  0
 18 20  1  0  0  0  0
 18 28  1  0  0  0  0
 19 28  1  0  0  0  0
 20 50  1  0  0  0  0
 21 23  1  0  0  0  0
 21 26  1  0  0  0  0
 22 25  1  0  0  0  0
 22 26  1  0  0  0  0
 22 27  1  0  0  0  0
 23 24  1  0  0  0  0
 23 32  1  0  0  0  0
 24 48  1  0  0  0  0
 25 49  1  0  0  0  0
 26 33  1  0  0  0  0
 27 28  1  0  0  0  0
 27 34  1  0  0  0  0
 28 35  1  0  0  0  0
 36 41  1  0  0  0  0
 37 42  1  0  0  0  0
 38 44  1  0  0  0  0
 39 40  1  0  0  0  0
 41 44  1  0  0  0  0
 42 44  1  0  0  0  0
  1 51  1  0  0  0  0
  2 52  1  0  0  0  0
  3 53  1  0  0  0  0
  8 54  1  0  0  0  0
 13 55  1  0  0  0  0
 13 56  1  0  0  0  0
 14 57  1  0  0  0  0
 14 58  1  0  0  0  0
 15 59  1  0  0  0  0
 15 60  1  0  0  0  0
 16 61  1  0  0  0  0
 16 62  1  0  0  0  0
 17 63  1  0  0  0  0
 17 64  1  0  0  0  0
 18 65  1  0  0  0  0
 18 66  1  0  0  0  0
 19 67  1  0  0  0  0
 20 68  1  0  0  0  0
 21 69  1  0  0  0  0
 22 70  1  0  0  0  0
 23 71  1  0  0  0  0
 24 72  1  0  0  0  0
 25 73  1  0  0  0  0
 29 74  1  0  0  0  0
 29 75  1  0  0  0  0
 29 76  1  0  0  0  0
 30 77  1  0  0  0  0
 30 78  1  0  0  0  0
 30 79  1  0  0  0  0
 31 80  1  0  0  0  0
 31 81  1  0  0  0  0
 31 82  1  0  0  0  0
 32 83  1  0  0  0  0
 32 84  1  0  0  0  0
 32 85  1  0  0  0  0
 33 86  1  0  0  0  0
 33 87  1  0  0  0  0
 33 88  1  0  0  0  0
 34 89  1  0  0  0  0
 34 90  1  0  0  0  0
 34 91  1  0  0  0  0
 35 92  1  0  0  0  0
 35 93  1  0  0  0  0
 35 94  1  0  0  0  0
 36 95  1  0  0  0  0
 36 96  1  0  0  0  0
 36 97  1  0  0  0  0
 37 98  1  0  0  0  0
 37 99  1  0  0  0  0
 37100  1  0  0  0  0
 38101  1  0  0  0  0
 38102  1  0  0  0  0
 39103  1  0  0  0  0
 39104  1  0  0  0  0
 40105  1  0  0  0  0
 40106  1  0  0  0  0
 41107  1  0  0  0  0
 41108  1  0  0  0  0
 42109  1  0  0  0  0
 42110  1  0  0  0  0
 43111  1  0  0  0  0
 44112  1  0  0  0  0
 47113  1  0  0  0  0
 48114  1  0  0  0  0
 49115  1  0  0  0  0
M  CHG  1  44   1
M  END
> <SMILES>
CCN(CC)Cc1cc(ccc1O)NC(=O)/C(=C/1\[C@H](C[C@@]2(C)[C@H]1C[C@@H](O)[C@H]1[C@@]3(C)CC[C@@H](O)[C@@H](C)C3CC[C@@]12C)OC(=O)C)CCC=C(C)C

> <FORMATTED_ID>
H3D-008268

> <MOLFORMULA>
C42H64N2O6

> <Exact Mass>
692.48

> <XLogP>
7.46

> <TPSA_NOPS>
119.3

> <s_m_source_file>
ligprep_h3d.sdf

> <i_m_source_file_index>
2718

> <i_lp_mmshare_version>
55123

> <i_f3d_flags>
0

> <s_epik_input>
W0NIM11bQ0gyXU4oW0NIMl1bQ0gzXSlbQ0gyXWMxW2NIXWMoW2NIXVtjSF1jMVtPSF0pW05IXUMoPU8pL0MoW0NIMl1bQ0gyXVtDSF09QyhbQ0gzXSlbQ0gzXSk9QyhcW0NASF0oW0NIMl0yKU9DKD1PKVtDSDNdKVtDQEBIXShbQ0BdMjNbQ0gzXSlbQ0gyXVtDQEBIXShbT0hdKVtDQEhdNFtDQF01KFtDSDNdKVtDQEBIXShbQ0BIXShbQ0gzXSlbQ0BIXShbT0hdKVtDSDJdW0NIMl01KVtDSDJdW0NIMl1bQ0BdMzRbQ0gzXQ==

> <s_epik_cmdline>
J2VwaWtfcHl0aG9uJywgJy1waHQnLCAnMC41JywgJy1waCcsICc3LjUnLCAnLXRuJywgJzgnLCAnLW1hJywgJzUwMCcsICctaW1hZScsICc8aW5maWxlLm1hZT4nLCAnLW9tYWUnLCAnPG91dGZpbGUubWFlPic=

> <r_lp_tautomer_probability>
1

> <r_epik_Ionization_Penalty>
0.144526

> <r_epik_Ionization_Penalty_Charging>
0.0528895

> <r_epik_Ionization_Penalty_Neutral>
0.0916362

> <r_epik_State_Penalty>
-0

> <r_epik_Charging_Adjusted_Penalty>
0.0528895

> <i_epik_Tot_Q>
1

> <i_epik_Tot_abs_Q>
1

> <s_epik_Chemistry_Notes>
This compound has an ester and may undergo hydrolysis at high or low pH.

> <s_lp_Force_Field>
S-OPLS

> <r_lp_Energy>
93.0268

> <b_lp_Chiralities_Consistent>
1

> <s_lp_Variant>
ligprep_h3d.sdf:2718-1

> <ROCS_ShapeQuery>
_7L13

> <ROCS_TanimotoCombo>
0.647 

> <ROCS_ShapeTanimoto>
0.554 

> <ROCS_ColorTanimoto>
0.093 

> <ROCS_RefTversky>
0.813 

> <ROCS_RefColorTversky>
0.244 

> <ROCS_RefTverskyCombo>
1.057 

> <ROCS_FitTversky>
0.635 

> <ROCS_FitColorTversky>
0.131 

> <ROCS_FitTverskyCombo>
0.767 

> <ROCS_ColorScore>
-2.309

> <ROCS_Overlap>
1370.795

> <ROCS_Rank>
95                  

$$$$
ligprep_h3d.sdf:2722_1457
  -OEChem-08212117123D

115119  0     1  0  0  0  0  0999 V2000
  -19.3867   -5.8497  -35.1364 C   0  0  0  0  0  0  0  0  0  0  0  0
  -18.9861   -4.6241  -33.0932 C   0  0  0  0  0  0  0  0  0  0  0  0
  -20.1282   -6.7930  -34.4252 C   0  0  0  0  0  0  0  0  0  0  0  0
  -19.7277   -5.5674  -32.3820 C   0  0  0  0  0  0  0  0  0  0  0  0
  -20.2987   -6.6519  -33.0480 C   0  0  0  0  0  0  0  0  0  0  0  0
  -18.8156   -4.7652  -34.4704 C   0  0  0  0  0  0  0  0  0  0  0  0
  -21.2199   -3.9327  -28.1980 C   0  0  0  0  0  0  0  0  0  0  0  0
  -16.8831   -5.3665  -26.9055 C   0  0  0  0  0  0  0  0  0  0  0  0
  -20.1359   -4.4335  -28.8021 C   0  0  0  0  0  0  0  0  0  0  0  0
  -16.3792   -5.3078  -25.6581 C   0  0  0  0  0  0  0  0  0  0  0  0
  -19.9578   -4.2199  -30.2742 C   0  0  0  0  0  0  0  0  0  0  0  0
  -23.3675   -3.2438  -31.0378 C   0  0  0  0  0  0  0  0  0  0  0  0
  -25.8154   -4.1456  -23.8466 C   0  0  0  0  0  0  0  0  0  0  0  0
  -23.7789   -4.1657  -20.4580 C   0  0  0  0  0  0  0  0  0  0  0  0
  -25.2248   -4.2088  -25.2529 C   0  0  0  0  0  0  0  0  0  0  0  0
  -23.1044   -4.1173  -21.8322 C   0  0  0  0  0  0  0  0  0  0  0  0
  -20.9245   -5.0980  -25.8435 C   0  0  0  0  0  0  0  0  0  0  0  0
  -23.4564   -3.0929  -27.8305 C   0  0  0  0  0  0  0  0  0  0  0  0
  -21.5714   -4.0431  -26.7352 C   0  0  2  0  0  0  0  0  0  0  0  0
  -22.3519   -3.2172  -28.9042 C   0  0  2  0  0  0  0  0  0  0  0  0
  -25.1997   -5.1959  -22.9038 C   0  0  2  0  0  0  0  0  0  0  0  0
  -23.0106   -5.0136  -24.3160 C   0  0  1  0  0  0  0  0  0  0  0  0
  -25.8565   -5.2028  -21.4856 C   0  0  1  0  0  0  0  0  0  0  0  0
  -25.3015   -4.1306  -20.5333 C   0  0  2  0  0  0  0  0  0  0  0  0
  -21.4518   -4.9827  -24.3985 C   0  0  2  0  0  0  0  0  0  0  0  0
  -23.6230   -5.1681  -22.8478 C   0  0  1  0  0  0  0  0  0  0  0  0
  -23.6994   -3.9550  -25.2858 C   0  0  1  0  0  0  0  0  0  0  0  0
  -23.1182   -4.1763  -26.7651 C   0  0  1  0  0  0  0  0  0  0  0  0
  -15.3286   -6.2227  -25.0957 C   0  0  0  0  0  0  0  0  0  0  0  0
  -16.8623   -4.2569  -24.6934 C   0  0  0  0  0  0  0  0  0  0  0  0
  -23.8017   -4.1619  -32.1398 C   0  0  0  0  0  0  0  0  0  0  0  0
  -27.3897   -5.1618  -21.5253 C   0  0  0  0  0  0  0  0  0  0  0  0
  -23.1561   -6.5655  -22.3125 C   0  0  0  0  0  0  0  0  0  0  0  0
  -23.4835   -2.4812  -24.8428 C   0  0  0  0  0  0  0  0  0  0  0  0
  -23.5716   -5.5525  -27.3641 C   0  0  0  0  0  0  0  0  0  0  0  0
  -19.9242  -11.6640  -35.2875 C   0  0  0  0  0  0  0  0  0  0  0  0
  -18.4314   -8.8454  -36.7843 C   0  0  0  0  0  0  0  0  0  0  0  0
  -20.7317   -7.9470  -35.1561 C   0  0  0  0  0  0  0  0  0  0  0  0
  -17.9311   -4.4855  -27.5288 C   0  0  0  0  0  0  0  0  0  0  0  0
  -19.1112   -5.2862  -28.0970 C   0  0  0  0  0  0  0  0  0  0  0  0
  -20.6800  -10.3943  -35.6131 C   0  0  0  0  0  0  0  0  0  0  0  0
  -18.5509   -9.1403  -35.3051 C   0  0  0  0  0  0  0  0  0  0  0  0
  -19.8913   -5.4096  -30.9848 N   0  0  0  0  0  0  0  0  0  0  0  0
  -20.0088   -9.2287  -34.9328 N   0  3  0  0  0  0  0  0  0  0  0  0
  -19.9439   -3.0759  -30.7165 O   0  0  0  0  0  0  0  0  0  0  0  0
  -23.5016   -2.0279  -31.0661 O   0  0  0  0  0  0  0  0  0  0  0  0
  -21.0249   -7.5769  -32.3557 O   0  0  0  0  0  0  0  0  0  0  0  0
  -25.7561   -2.8266  -20.8808 O   0  0  0  0  0  0  0  0  0  0  0  0
  -20.9355   -3.7918  -23.8138 O   0  0  0  0  0  0  0  0  0  0  0  0
  -22.8094   -3.9672  -30.0187 O   0  0  0  0  0  0  0  0  0  0  0  0
  -17.9006   -3.6013  -35.3481 Cl  0  0  0  0  0  0  0  0  0  0  0  0
  -19.2563   -5.9637  -36.2103 H   0  0  0  0  0  0  0  0  0  0  0  0
  -18.5416   -3.7790  -32.5716 H   0  0  0  0  0  0  0  0  0  0  0  0
  -16.4965   -6.1347  -27.5748 H   0  0  0  0  0  0  0  0  0  0  0  0
  -25.7257   -3.1393  -23.4317 H   0  0  0  0  0  0  0  0  0  0  0  0
  -26.8907   -4.3300  -23.9522 H   0  0  0  0  0  0  0  0  0  0  0  0
  -23.4617   -5.0689  -19.9243 H   0  0  0  0  0  0  0  0  0  0  0  0
  -23.4184   -3.3127  -19.8693 H   0  0  0  0  0  0  0  0  0  0  0  0
  -25.4650   -5.1989  -25.6553 H   0  0  0  0  0  0  0  0  0  0  0  0
  -25.7424   -3.4832  -25.8930 H   0  0  0  0  0  0  0  0  0  0  0  0
  -23.2238   -3.1053  -22.2129 H   0  0  0  0  0  0  0  0  0  0  0  0
  -22.0289   -4.2498  -21.6658 H   0  0  0  0  0  0  0  0  0  0  0  0
  -21.1132   -6.1061  -26.2295 H   0  0  0  0  0  0  0  0  0  0  0  0
  -19.8369   -4.9547  -25.8437 H   0  0  0  0  0  0  0  0  0  0  0  0
  -23.3897   -2.0844  -27.4130 H   0  0  0  0  0  0  0  0  0  0  0  0
  -24.4636   -3.2179  -28.2422 H   0  0  0  0  0  0  0  0  0  0  0  0
  -21.2877   -3.0649  -26.3245 H   0  0  0  0  0  0  0  0  0  0  0  0
  -22.0386   -2.2263  -29.2502 H   0  0  0  0  0  0  0  0  0  0  0  0
  -25.4741   -6.1628  -23.3553 H   0  0  0  0  0  0  0  0  0  0  0  0
  -23.2660   -5.9848  -24.7582 H   0  0  0  0  0  0  0  0  0  0  0  0
  -25.6155   -6.1678  -21.0306 H   0  0  0  0  0  0  0  0  0  0  0  0
  -25.6954   -4.3335  -19.5072 H   0  0  0  0  0  0  0  0  0  0  0  0
  -21.0298   -5.8193  -23.8341 H   0  0  0  0  0  0  0  0  0  0  0  0
  -14.3322   -5.8086  -25.2824 H   0  0  0  0  0  0  0  0  0  0  0  0
  -15.4175   -6.3874  -24.0207 H   0  0  0  0  0  0  0  0  0  0  0  0
  -15.3880   -7.2036  -25.5792 H   0  0  0  0  0  0  0  0  0  0  0  0
  -17.7193   -4.6312  -24.1236 H   0  0  0  0  0  0  0  0  0  0  0  0
  -16.0903   -3.9617  -23.9750 H   0  0  0  0  0  0  0  0  0  0  0  0
  -17.1712   -3.3576  -25.2364 H   0  0  0  0  0  0  0  0  0  0  0  0
  -22.9850   -4.2975  -32.8531 H   0  0  0  0  0  0  0  0  0  0  0  0
  -24.6843   -3.7525  -32.6376 H   0  0  0  0  0  0  0  0  0  0  0  0
  -24.0617   -5.1372  -31.7180 H   0  0  0  0  0  0  0  0  0  0  0  0
  -27.7156   -4.2249  -21.9683 H   0  0  0  0  0  0  0  0  0  0  0  0
  -27.7803   -5.2396  -20.5145 H   0  0  0  0  0  0  0  0  0  0  0  0
  -27.7588   -5.9919  -22.1212 H   0  0  0  0  0  0  0  0  0  0  0  0
  -23.5042   -7.3149  -23.0014 H   0  0  0  0  0  0  0  0  0  0  0  0
  -23.5886   -6.7055  -21.3375 H   0  0  0  0  0  0  0  0  0  0  0  0
  -22.0814   -6.5560  -22.2616 H   0  0  0  0  0  0  0  0  0  0  0  0
  -22.4241   -2.2716  -24.8553 H   0  0  0  0  0  0  0  0  0  0  0  0
  -23.8798   -2.3620  -23.8453 H   0  0  0  0  0  0  0  0  0  0  0  0
  -24.0038   -1.8359  -25.5352 H   0  0  0  0  0  0  0  0  0  0  0  0
  -23.3458   -6.3161  -26.6409 H   0  0  0  0  0  0  0  0  0  0  0  0
  -23.0246   -5.7097  -28.2769 H   0  0  0  0  0  0  0  0  0  0  0  0
  -24.6295   -5.4968  -27.5511 H   0  0  0  0  0  0  0  0  0  0  0  0
  -18.8990  -11.6008  -35.6649 H   0  0  0  0  0  0  0  0  0  0  0  0
  -19.8772  -11.8303  -34.2063 H   0  0  0  0  0  0  0  0  0  0  0  0
  -20.4006  -12.5369  -35.7459 H   0  0  0  0  0  0  0  0  0  0  0  0
  -18.8778   -9.6559  -37.3686 H   0  0  0  0  0  0  0  0  0  0  0  0
  -18.9476   -7.9157  -37.0455 H   0  0  0  0  0  0  0  0  0  0  0  0
  -17.3829   -8.7488  -37.0853 H   0  0  0  0  0  0  0  0  0  0  0  0
  -21.7709   -8.1203  -34.8477 H   0  0  0  0  0  0  0  0  0  0  0  0
  -20.7353   -7.7789  -36.2410 H   0  0  0  0  0  0  0  0  0  0  0  0
  -18.2965   -3.7178  -26.8414 H   0  0  0  0  0  0  0  0  0  0  0  0
  -17.4554   -3.9404  -28.3541 H   0  0  0  0  0  0  0  0  0  0  0  0
  -19.5847   -5.8570  -27.2871 H   0  0  0  0  0  0  0  0  0  0  0  0
  -18.7246   -6.0343  -28.8007 H   0  0  0  0  0  0  0  0  0  0  0  0
  -21.7095  -10.4310  -35.2464 H   0  0  0  0  0  0  0  0  0  0  0  0
  -20.6762  -10.1854  -36.6865 H   0  0  0  0  0  0  0  0  0  0  0  0
  -18.1117   -8.3446  -34.6972 H   0  0  0  0  0  0  0  0  0  0  0  0
  -18.0944  -10.0996  -35.0459 H   0  0  0  0  0  0  0  0  0  0  0  0
  -19.9929   -6.2789  -30.4649 H   0  0  0  0  0  0  0  0  0  0  0  0
  -20.0367   -9.4301  -33.9199 H   0  0  0  0  0  0  0  0  0  0  0  0
  -21.3515   -8.2624  -32.9581 H   0  0  0  0  0  0  0  0  0  0  0  0
  -25.4383   -2.2293  -20.1862 H   0  0  0  0  0  0  0  0  0  0  0  0
  -19.9687   -3.8718  -23.8283 H   0  0  0  0  0  0  0  0  0  0  0  0
  1  3  2  0  0  0  0
  1  6  1  0  0  0  0
  2  4  1  0  0  0  0
  2  6  2  0  0  0  0
  3  5  1  0  0  0  0
  3 38  1  0  0  0  0
  4  5  2  0  0  0  0
  4 43  1  0  0  0  0
  5 47  1  0  0  0  0
  6 51  1  0  0  0  0
  7  9  2  0  0  0  0
  7 19  1  0  0  0  0
  7 20  1  0  0  0  0
  8 10  2  0  0  0  0
  8 39  1  0  0  0  0
  9 11  1  0  0  0  0
  9 40  1  0  0  0  0
 10 29  1  0  0  0  0
 10 30  1  0  0  0  0
 11 43  1  0  0  0  0
 11 45  2  0  0  0  0
 12 31  1  0  0  0  0
 12 46  2  0  0  0  0
 12 50  1  0  0  0  0
 13 15  1  0  0  0  0
 13 21  1  0  0  0  0
 14 16  1  0  0  0  0
 14 24  1  0  0  0  0
 15 27  1  0  0  0  0
 16 26  1  0  0  0  0
 17 19  1  0  0  0  0
 17 25  1  0  0  0  0
 18 20  1  0  0  0  0
 18 28  1  0  0  0  0
 19 28  1  0  0  0  0
 20 50  1  0  0  0  0
 21 23  1  0  0  0  0
 21 26  1  0  0  0  0
 22 25  1  0  0  0  0
 22 26  1  0  0  0  0
 22 27  1  0  0  0  0
 23 24  1  0  0  0  0
 23 32  1  0  0  0  0
 24 48  1  0  0  0  0
 25 49  1  0  0  0  0
 26 33  1  0  0  0  0
 27 28  1  0  0  0  0
 27 34  1  0  0  0  0
 28 35  1  0  0  0  0
 36 41  1  0  0  0  0
 37 42  1  0  0  0  0
 38 44  1  0  0  0  0
 39 40  1  0  0  0  0
 41 44  1  0  0  0  0
 42 44  1  0  0  0  0
  1 52  1  0  0  0  0
  2 53  1  0  0  0  0
  8 54  1  0  0  0  0
 13 55  1  0  0  0  0
 13 56  1  0  0  0  0
 14 57  1  0  0  0  0
 14 58  1  0  0  0  0
 15 59  1  0  0  0  0
 15 60  1  0  0  0  0
 16 61  1  0  0  0  0
 16 62  1  0  0  0  0
 17 63  1  0  0  0  0
 17 64  1  0  0  0  0
 18 65  1  0  0  0  0
 18 66  1  0  0  0  0
 19 67  1  0  0  0  0
 20 68  1  0  0  0  0
 21 69  1  0  0  0  0
 22 70  1  0  0  0  0
 23 71  1  0  0  0  0
 24 72  1  0  0  0  0
 25 73  1  0  0  0  0
 29 74  1  0  0  0  0
 29 75  1  0  0  0  0
 29 76  1  0  0  0  0
 30 77  1  0  0  0  0
 30 78  1  0  0  0  0
 30 79  1  0  0  0  0
 31 80  1  0  0  0  0
 31 81  1  0  0  0  0
 31 82  1  0  0  0  0
 32 83  1  0  0  0  0
 32 84  1  0  0  0  0
 32 85  1  0  0  0  0
 33 86  1  0  0  0  0
 33 87  1  0  0  0  0
 33 88  1  0  0  0  0
 34 89  1  0  0  0  0
 34 90  1  0  0  0  0
 34 91  1  0  0  0  0
 35 92  1  0  0  0  0
 35 93  1  0  0  0  0
 35 94  1  0  0  0  0
 36 95  1  0  0  0  0
 36 96  1  0  0  0  0
 36 97  1  0  0  0  0
 37 98  1  0  0  0  0
 37 99  1  0  0  0  0
 37100  1  0  0  0  0
 38101  1  0  0  0  0
 38102  1  0  0  0  0
 39103  1  0  0  0  0
 39104  1  0  0  0  0
 40105  1  0  0  0  0
 40106  1  0  0  0  0
 41107  1  0  0  0  0
 41108  1  0  0  0  0
 42109  1  0  0  0  0
 42110  1  0  0  0  0
 43111  1  0  0  0  0
 44112  1  0  0  0  0
 47113  1  0  0  0  0
 48114  1  0  0  0  0
 49115  1  0  0  0  0
M  CHG  1  44   1
M  END
> <SMILES>
CCN(CC)Cc1cc(cc(c1O)NC(=O)/C(=C/1\[C@H](C[C@@]2(C)[C@H]1C[C@@H](O)[C@H]1[C@@]3(C)CC[C@@H](O)[C@@H](C)C3CC[C@@]12C)OC(=O)C)CCC=C(C)C)Cl

> <FORMATTED_ID>
H3D-008272

> <MOLFORMULA>
C42H63ClN2O6

> <Exact Mass>
726.44

> <XLogP>
8.08

> <TPSA_NOPS>
119.3

> <s_m_source_file>
ligprep_h3d.sdf

> <i_m_source_file_index>
2722

> <i_lp_mmshare_version>
55123

> <i_f3d_flags>
0

> <s_epik_input>
W0NIM11bQ0gyXU4oW0NIMl1bQ0gzXSlbQ0gyXWMxW2NIXWMoQ2wpW2NIXWMoYzFbT0hdKVtOSF1DKD1PKS9DKFtDSDJdW0NIMl1bQ0hdPUMoW0NIM10pW0NIM10pPUMoXFtDQEhdKFtDSDJdMilPQyg9TylbQ0gzXSlbQ0BASF0oW0NAXTIzW0NIM10pW0NIMl1bQ0BASF0oW09IXSlbQ0BIXTRbQ0BdNShbQ0gzXSlbQ0BASF0oW0NASF0oW0NIM10pW0NASF0oW09IXSlbQ0gyXVtDSDJdNSlbQ0gyXVtDSDJdW0NAXTM0W0NIM10=

> <s_epik_cmdline>
J2VwaWtfcHl0aG9uJywgJy1waHQnLCAnMC41JywgJy1waCcsICc3LjUnLCAnLXRuJywgJzgnLCAnLW1hJywgJzUwMCcsICctaW1hZScsICc8aW5maWxlLm1hZT4nLCAnLW9tYWUnLCAnPG91dGZpbGUubWFlPic=

> <r_lp_tautomer_probability>
1

> <r_epik_Ionization_Penalty>
0.537532

> <r_epik_Ionization_Penalty_Charging>
0.0622151

> <r_epik_Ionization_Penalty_Neutral>
0.475317

> <r_epik_State_Penalty>
0.32014

> <r_epik_Charging_Adjusted_Penalty>
0.382355

> <i_epik_Tot_Q>
1

> <i_epik_Tot_abs_Q>
1

> <s_epik_Chemistry_Notes>
This compound has an ester and may undergo hydrolysis at high or low pH.

> <s_lp_Force_Field>
S-OPLS

> <r_lp_Energy>
97.9876

> <b_lp_Chiralities_Consistent>
1

> <s_lp_Variant>
ligprep_h3d.sdf:2722-1

> <ROCS_ShapeQuery>
_7L13

> <ROCS_TanimotoCombo>
0.637 

> <ROCS_ShapeTanimoto>
0.546 

> <ROCS_ColorTanimoto>
0.091 

> <ROCS_RefTversky>
0.812 

> <ROCS_RefColorTversky>
0.238 

> <ROCS_RefTverskyCombo>
1.050 

> <ROCS_FitTversky>
0.625 

> <ROCS_FitColorTversky>
0.128 

> <ROCS_FitTverskyCombo>
0.753 

> <ROCS_ColorScore>
-2.248

> <ROCS_Overlap>
1371.841

> <ROCS_Rank>
96                  

$$$$
ligprep_h3d.sdf:2369_1902
  -OEChem-08212117123D

115119  0     1  0  0  0  0  0999 V2000
  -23.2313   -3.2467  -24.7763 C   0  0  0  0  0  0  0  0  0  0  0  0
  -23.9520   -2.9085  -23.6310 C   0  0  0  0  0  0  0  0  0  0  0  0
  -24.1108   -5.4942  -24.6661 C   0  0  0  0  0  0  0  0  0  0  0  0
  -24.8315   -5.1560  -23.5207 C   0  0  0  0  0  0  0  0  0  0  0  0
  -23.3107   -4.5396  -25.2939 C   0  0  0  0  0  0  0  0  0  0  0  0
  -24.7521   -3.8631  -23.0032 C   0  0  0  0  0  0  0  0  0  0  0  0
  -21.7460   -4.7196  -29.5379 C   0  0  0  0  0  0  0  0  0  0  0  0
  -17.8441   -5.8708  -26.5882 C   0  0  0  0  0  0  0  0  0  0  0  0
  -21.1149   -4.7689  -28.3590 C   0  0  0  0  0  0  0  0  0  0  0  0
  -16.8318   -5.4353  -25.8142 C   0  0  0  0  0  0  0  0  0  0  0  0
  -21.7183   -4.0695  -27.1794 C   0  0  0  0  0  0  0  0  0  0  0  0
  -23.8294   -2.1226  -28.5396 C   0  0  0  0  0  0  0  0  0  0  0  0
  -21.3041   -4.0698  -35.7899 C   0  0  0  0  0  0  0  0  0  0  0  0
  -19.4969   -8.0192  -36.6941 C   0  0  0  0  0  0  0  0  0  0  0  0
  -22.0794   -3.9696  -34.4647 C   0  0  0  0  0  0  0  0  0  0  0  0
  -19.8195   -7.5885  -35.2524 C   0  0  0  0  0  0  0  0  0  0  0  0
  -19.8445   -5.7814  -31.0500 C   0  0  0  0  0  0  0  0  0  0  0  0
  -23.1916   -4.0256  -31.3471 C   0  0  0  0  0  0  0  0  0  0  0  0
  -21.2958   -5.3629  -30.8268 C   0  0  2  0  0  0  0  0  0  0  0  0
  -23.0158   -3.9389  -29.8148 C   0  0  2  0  0  0  0  0  0  0  0  0
  -20.9309   -5.5144  -36.1079 C   0  0  1  0  0  0  0  0  0  0  0  0
  -20.2348   -5.5485  -33.5921 C   0  0  1  0  0  0  0  0  0  0  0  0
  -20.5128   -5.8249  -37.5710 C   0  0  1  0  0  0  0  0  0  0  0  0
  -20.3911   -7.3610  -37.7476 C   0  0  2  0  0  0  0  0  0  0  0  0
  -19.6895   -6.4401  -32.4360 C   0  0  2  0  0  0  0  0  0  0  0  0
  -19.8864   -6.0503  -35.0689 C   0  0  1  0  0  0  0  0  0  0  0  0
  -21.7109   -5.0192  -33.3575 C   0  0  1  0  0  0  0  0  0  0  0  0
  -21.7757   -4.3465  -31.9010 C   0  0  1  0  0  0  0  0  0  0  0  0
  -15.4737   -6.0696  -25.7126 C   0  0  0  0  0  0  0  0  0  0  0  0
  -17.0064   -4.2108  -24.9548 C   0  0  0  0  0  0  0  0  0  0  0  0
  -23.5741   -0.6806  -28.2211 C   0  0  0  0  0  0  0  0  0  0  0  0
  -21.4870   -5.2427  -38.6036 C   0  0  0  0  0  0  0  0  0  0  0  0
  -18.4525   -5.4893  -35.3567 C   0  0  0  0  0  0  0  0  0  0  0  0
  -22.7434   -6.1844  -33.4543 C   0  0  0  0  0  0  0  0  0  0  0  0
  -20.9365   -3.0197  -31.8303 C   0  0  0  0  0  0  0  0  0  0  0  0
  -29.1414   -5.0926  -24.0104 C   0  0  0  0  0  0  0  0  0  0  0  0
  -27.3988   -7.0075  -20.6631 C   0  0  0  0  0  0  0  0  0  0  0  0
  -25.6830   -6.1904  -22.8616 C   0  0  0  0  0  0  0  0  0  0  0  0
  -19.2219   -5.2853  -26.7357 C   0  0  0  0  0  0  0  0  0  0  0  0
  -19.7699   -5.4224  -28.1631 C   0  0  0  0  0  0  0  0  0  0  0  0
  -27.6990   -5.5238  -24.1624 C   0  0  0  0  0  0  0  0  0  0  0  0
  -27.9511   -6.8362  -22.0613 C   0  0  0  0  0  0  0  0  0  0  0  0
  -22.5791   -4.8824  -26.4563 N   0  0  0  0  0  0  0  0  0  0  0  0
  -27.1226   -5.8172  -22.8009 N   0  3  0  0  0  0  0  0  0  0  0  0
  -21.3788   -2.9181  -26.9271 O   0  0  0  0  0  0  0  0  0  0  0  0
  -24.7479   -2.7769  -28.0650 O   0  0  0  0  0  0  0  0  0  0  0  0
  -25.4495   -3.5158  -21.8854 O   0  0  0  0  0  0  0  0  0  0  0  0
  -21.6743   -7.9855  -37.6591 O   0  0  0  0  0  0  0  0  0  0  0  0
  -20.3507   -7.7021  -32.4136 O   0  0  0  0  0  0  0  0  0  0  0  0
  -22.8913   -2.5790  -29.4256 O   0  0  0  0  0  0  0  0  0  0  0  0
  -22.6109   -2.4946  -25.2573 H   0  0  0  0  0  0  0  0  0  0  0  0
  -23.8858   -1.8995  -23.2330 H   0  0  0  0  0  0  0  0  0  0  0  0
  -24.1738   -6.5029  -25.0685 H   0  0  0  0  0  0  0  0  0  0  0  0
  -17.6708   -6.7533  -27.2035 H   0  0  0  0  0  0  0  0  0  0  0  0
  -21.9372   -3.6338  -36.5693 H   0  0  0  0  0  0  0  0  0  0  0  0
  -20.4086   -3.4405  -35.7438 H   0  0  0  0  0  0  0  0  0  0  0  0
  -18.4475   -7.8006  -36.9199 H   0  0  0  0  0  0  0  0  0  0  0  0
  -19.6019   -9.1100  -36.7528 H   0  0  0  0  0  0  0  0  0  0  0  0
  -21.9567   -2.9416  -34.1174 H   0  0  0  0  0  0  0  0  0  0  0  0
  -23.1515   -4.0452  -34.6909 H   0  0  0  0  0  0  0  0  0  0  0  0
  -20.7754   -8.0406  -34.9644 H   0  0  0  0  0  0  0  0  0  0  0  0
  -19.0529   -8.0238  -34.6010 H   0  0  0  0  0  0  0  0  0  0  0  0
  -19.1699   -4.9221  -30.9665 H   0  0  0  0  0  0  0  0  0  0  0  0
  -19.5493   -6.4975  -30.2735 H   0  0  0  0  0  0  0  0  0  0  0  0
  -23.8929   -4.8393  -31.5573 H   0  0  0  0  0  0  0  0  0  0  0  0
  -23.6063   -3.1082  -31.7783 H   0  0  0  0  0  0  0  0  0  0  0  0
  -21.8975   -6.2792  -30.8739 H   0  0  0  0  0  0  0  0  0  0  0  0
  -23.8791   -4.3768  -29.3055 H   0  0  0  0  0  0  0  0  0  0  0  0
  -21.8632   -6.0744  -35.9872 H   0  0  0  0  0  0  0  0  0  0  0  0
  -19.6284   -4.6403  -33.4984 H   0  0  0  0  0  0  0  0  0  0  0  0
  -19.5385   -5.3719  -37.7826 H   0  0  0  0  0  0  0  0  0  0  0  0
  -19.9899   -7.5923  -38.7417 H   0  0  0  0  0  0  0  0  0  0  0  0
  -18.6246   -6.6392  -32.6008 H   0  0  0  0  0  0  0  0  0  0  0  0
  -14.8004   -5.6347  -26.4587 H   0  0  0  0  0  0  0  0  0  0  0  0
  -15.0020   -5.9468  -24.7363 H   0  0  0  0  0  0  0  0  0  0  0  0
  -15.5472   -7.1455  -25.9033 H   0  0  0  0  0  0  0  0  0  0  0  0
  -17.3866   -4.4923  -23.9673 H   0  0  0  0  0  0  0  0  0  0  0  0
  -16.0678   -3.6668  -24.8058 H   0  0  0  0  0  0  0  0  0  0  0  0
  -17.7193   -3.5210  -25.4186 H   0  0  0  0  0  0  0  0  0  0  0  0
  -22.9069   -0.6036  -27.3592 H   0  0  0  0  0  0  0  0  0  0  0  0
  -24.5206   -0.1714  -28.0227 H   0  0  0  0  0  0  0  0  0  0  0  0
  -23.0936   -0.1995  -29.0780 H   0  0  0  0  0  0  0  0  0  0  0  0
  -22.4774   -5.6588  -38.4417 H   0  0  0  0  0  0  0  0  0  0  0  0
  -21.1473   -5.4950  -39.6041 H   0  0  0  0  0  0  0  0  0  0  0  0
  -21.5259   -4.1624  -38.4957 H   0  0  0  0  0  0  0  0  0  0  0  0
  -18.4851   -4.4208  -35.2326 H   0  0  0  0  0  0  0  0  0  0  0  0
  -18.1916   -5.7529  -36.3669 H   0  0  0  0  0  0  0  0  0  0  0  0
  -17.7745   -5.9395  -34.6525 H   0  0  0  0  0  0  0  0  0  0  0  0
  -22.5005   -6.9130  -32.6976 H   0  0  0  0  0  0  0  0  0  0  0  0
  -22.6702   -6.6180  -34.4387 H   0  0  0  0  0  0  0  0  0  0  0  0
  -23.7277   -5.7764  -33.2891 H   0  0  0  0  0  0  0  0  0  0  0  0
  -19.9554   -3.2350  -32.2122 H   0  0  0  0  0  0  0  0  0  0  0  0
  -20.8959   -2.7155  -30.8005 H   0  0  0  0  0  0  0  0  0  0  0  0
  -21.4377   -2.2857  -32.4344 H   0  0  0  0  0  0  0  0  0  0  0  0
  -29.7316   -5.8984  -23.5633 H   0  0  0  0  0  0  0  0  0  0  0  0
  -29.2255   -4.2128  -23.3641 H   0  0  0  0  0  0  0  0  0  0  0  0
  -29.5852   -4.8461  -24.9806 H   0  0  0  0  0  0  0  0  0  0  0  0
  -26.3705   -7.3793  -20.7059 H   0  0  0  0  0  0  0  0  0  0  0  0
  -27.3926   -6.0564  -20.1207 H   0  0  0  0  0  0  0  0  0  0  0  0
  -27.9940   -7.7240  -20.0873 H   0  0  0  0  0  0  0  0  0  0  0  0
  -25.6346   -7.1503  -23.3922 H   0  0  0  0  0  0  0  0  0  0  0  0
  -25.3668   -6.3721  -21.8260 H   0  0  0  0  0  0  0  0  0  0  0  0
  -19.9344   -5.7040  -26.0198 H   0  0  0  0  0  0  0  0  0  0  0  0
  -19.1539   -4.2170  -26.4938 H   0  0  0  0  0  0  0  0  0  0  0  0
  -19.8223   -6.4862  -28.4302 H   0  0  0  0  0  0  0  0  0  0  0  0
  -19.0513   -4.9759  -28.8620 H   0  0  0  0  0  0  0  0  0  0  0  0
  -27.0859   -4.7354  -24.6077 H   0  0  0  0  0  0  0  0  0  0  0  0
  -27.6109   -6.4399  -24.7528 H   0  0  0  0  0  0  0  0  0  0  0  0
  -28.9796   -6.4650  -22.0473 H   0  0  0  0  0  0  0  0  0  0  0  0
  -27.9008   -7.7671  -22.6328 H   0  0  0  0  0  0  0  0  0  0  0  0
  -22.6941   -5.8454  -26.7658 H   0  0  0  0  0  0  0  0  0  0  0  0
  -27.1946   -4.9394  -22.2612 H   0  0  0  0  0  0  0  0  0  0  0  0
  -25.2833   -2.5866  -21.6622 H   0  0  0  0  0  0  0  0  0  0  0  0
  -21.5314   -8.9263  -37.8387 H   0  0  0  0  0  0  0  0  0  0  0  0
  -19.9191   -8.2282  -31.7225 H   0  0  0  0  0  0  0  0  0  0  0  0
  1  2  1  0  0  0  0
  1  5  2  0  0  0  0
  2  6  2  0  0  0  0
  3  4  2  0  0  0  0
  3  5  1  0  0  0  0
  4  6  1  0  0  0  0
  4 38  1  0  0  0  0
  5 43  1  0  0  0  0
  6 47  1  0  0  0  0
  7  9  2  0  0  0  0
  7 19  1  0  0  0  0
  7 20  1  0  0  0  0
  8 10  2  0  0  0  0
  8 39  1  0  0  0  0
  9 11  1  0  0  0  0
  9 40  1  0  0  0  0
 10 29  1  0  0  0  0
 10 30  1  0  0  0  0
 11 43  1  0  0  0  0
 11 45  2  0  0  0  0
 12 31  1  0  0  0  0
 12 46  2  0  0  0  0
 12 50  1  0  0  0  0
 13 15  1  0  0  0  0
 13 21  1  0  0  0  0
 14 16  1  0  0  0  0
 14 24  1  0  0  0  0
 15 27  1  0  0  0  0
 16 26  1  0  0  0  0
 17 19  1  0  0  0  0
 17 25  1  0  0  0  0
 18 20  1  0  0  0  0
 18 28  1  0  0  0  0
 19 28  1  0  0  0  0
 20 50  1  0  0  0  0
 21 23  1  0  0  0  0
 21 26  1  0  0  0  0
 22 25  1  0  0  0  0
 22 26  1  0  0  0  0
 22 27  1  0  0  0  0
 23 24  1  0  0  0  0
 23 32  1  0  0  0  0
 24 48  1  0  0  0  0
 25 49  1  0  0  0  0
 26 33  1  0  0  0  0
 27 28  1  0  0  0  0
 27 34  1  0  0  0  0
 28 35  1  0  0  0  0
 36 41  1  0  0  0  0
 37 42  1  0  0  0  0
 38 44  1  0  0  0  0
 39 40  1  0  0  0  0
 41 44  1  0  0  0  0
 42 44  1  0  0  0  0
  1 51  1  0  0  0  0
  2 52  1  0  0  0  0
  3 53  1  0  0  0  0
  8 54  1  0  0  0  0
 13 55  1  0  0  0  0
 13 56  1  0  0  0  0
 14 57  1  0  0  0  0
 14 58  1  0  0  0  0
 15 59  1  0  0  0  0
 15 60  1  0  0  0  0
 16 61  1  0  0  0  0
 16 62  1  0  0  0  0
 17 63  1  0  0  0  0
 17 64  1  0  0  0  0
 18 65  1  0  0  0  0
 18 66  1  0  0  0  0
 19 67  1  0  0  0  0
 20 68  1  0  0  0  0
 21 69  1  0  0  0  0
 22 70  1  0  0  0  0
 23 71  1  0  0  0  0
 24 72  1  0  0  0  0
 25 73  1  0  0  0  0
 29 74  1  0  0  0  0
 29 75  1  0  0  0  0
 29 76  1  0  0  0  0
 30 77  1  0  0  0  0
 30 78  1  0  0  0  0
 30 79  1  0  0  0  0
 31 80  1  0  0  0  0
 31 81  1  0  0  0  0
 31 82  1  0  0  0  0
 32 83  1  0  0  0  0
 32 84  1  0  0  0  0
 32 85  1  0  0  0  0
 33 86  1  0  0  0  0
 33 87  1  0  0  0  0
 33 88  1  0  0  0  0
 34 89  1  0  0  0  0
 34 90  1  0  0  0  0
 34 91  1  0  0  0  0
 35 92  1  0  0  0  0
 35 93  1  0  0  0  0
 35 94  1  0  0  0  0
 36 95  1  0  0  0  0
 36 96  1  0  0  0  0
 36 97  1  0  0  0  0
 37 98  1  0  0  0  0
 37 99  1  0  0  0  0
 37100  1  0  0  0  0
 38101  1  0  0  0  0
 38102  1  0  0  0  0
 39103  1  0  0  0  0
 39104  1  0  0  0  0
 40105  1  0  0  0  0
 40106  1  0  0  0  0
 41107  1  0  0  0  0
 41108  1  0  0  0  0
 42109  1  0  0  0  0
 42110  1  0  0  0  0
 43111  1  0  0  0  0
 44112  1  0  0  0  0
 47113  1  0  0  0  0
 48114  1  0  0  0  0
 49115  1  0  0  0  0
M  CHG  1  44   1
M  END
> <SMILES>
CCN(CC)Cc1cc(ccc1O)NC(=O)/C(=C/1\[C@H](C[C@@]2(C)[C@H]1C[C@@H](O)[C@H]1[C@@]3(C)CC[C@@H](O)[C@@H](C)[C@@H]3CC[C@@]12C)OC(=O)C)CCC=C(C)C

> <FORMATTED_ID>
H3D-005458

> <MOLFORMULA>
C42H64N2O6

> <Exact Mass>
692.48

> <XLogP>
7.46

> <TPSA_NOPS>
119.3

> <s_m_source_file>
ligprep_h3d.sdf

> <i_m_source_file_index>
2369

> <i_lp_mmshare_version>
55123

> <i_f3d_flags>
0

> <s_epik_input>
W0NIM11bQ0gyXU4oW0NIMl1bQ0gzXSlbQ0gyXWMxW2NIXWMoW2NIXVtjSF1jMVtPSF0pW05IXUMoPU8pL0MoW0NIMl1bQ0gyXVtDSF09QyhbQ0gzXSlbQ0gzXSk9QyhcW0NASF0oW0NIMl0yKU9DKD1PKVtDSDNdKVtDQEBIXShbQ0BdMjNbQ0gzXSlbQ0gyXVtDQEBIXShbT0hdKVtDQEhdNFtDQF01KFtDSDNdKVtDQEhdKFtDQEhdKFtDSDNdKVtDQEhdKFtPSF0pW0NIMl1bQ0gyXTUpW0NIMl1bQ0gyXVtDQF0zNFtDSDNd

> <s_epik_cmdline>
J2VwaWtfcHl0aG9uJywgJy1waHQnLCAnMC41JywgJy1waCcsICc3LjUnLCAnLXRuJywgJzgnLCAnLW1hJywgJzUwMCcsICctaW1hZScsICc8aW5maWxlLm1hZT4nLCAnLW9tYWUnLCAnPG91dGZpbGUubWFlPic=

> <r_lp_tautomer_probability>
1

> <r_epik_Ionization_Penalty>
0.144526

> <r_epik_Ionization_Penalty_Charging>
0.0528895

> <r_epik_Ionization_Penalty_Neutral>
0.0916362

> <r_epik_State_Penalty>
-0

> <r_epik_Charging_Adjusted_Penalty>
0.0528895

> <i_epik_Tot_Q>
1

> <i_epik_Tot_abs_Q>
1

> <s_epik_Chemistry_Notes>
This compound has an ester and may undergo hydrolysis at high or low pH.

> <s_lp_Force_Field>
S-OPLS

> <r_lp_Energy>
95.4861

> <b_lp_Chiralities_Consistent>
1

> <s_lp_Variant>
ligprep_h3d.sdf:2369-1

> <ROCS_ShapeQuery>
_7L13

> <ROCS_TanimotoCombo>
0.639 

> <ROCS_ShapeTanimoto>
0.554 

> <ROCS_ColorTanimoto>
0.086 

> <ROCS_RefTversky>
0.812 

> <ROCS_RefColorTversky>
0.225 

> <ROCS_RefTverskyCombo>
1.037 

> <ROCS_FitTversky>
0.635 

> <ROCS_FitColorTversky>
0.121 

> <ROCS_FitTverskyCombo>
0.756 

> <ROCS_ColorScore>
-2.130

> <ROCS_Overlap>
1369.906

> <ROCS_Rank>
97                  

$$$$
ligprep_h3d.sdf:5420_1212
  -OEChem-08212117123D

 73 79  0     0  0  0  0  0  0999 V2000
  -16.2952   -4.3452  -18.7458 C   0  0  0  0  0  0  0  0  0  0  0  0
  -16.0622   -5.4209  -19.6026 C   0  0  0  0  0  0  0  0  0  0  0  0
  -17.3405   -3.4593  -19.0070 C   0  0  0  0  0  0  0  0  0  0  0  0
  -16.8743   -5.6107  -20.7206 C   0  0  0  0  0  0  0  0  0  0  0  0
  -18.1527   -3.6491  -20.1250 C   0  0  0  0  0  0  0  0  0  0  0  0
  -23.4484   -3.7685  -23.8244 C   0  0  0  0  0  0  0  0  0  0  0  0
  -24.6396   -5.3019  -25.2437 C   0  0  0  0  0  0  0  0  0  0  0  0
  -18.8926   -6.2768  -35.4288 C   0  0  0  0  0  0  0  0  0  0  0  0
  -21.8902   -5.9189  -33.4733 C   0  0  0  0  0  0  0  0  0  0  0  0
  -18.9303   -4.2640  -26.8913 C   0  0  0  0  0  0  0  0  0  0  0  0
  -20.3096   -4.4133  -24.4412 C   0  0  0  0  0  0  0  0  0  0  0  0
  -24.5587   -3.7574  -22.9956 C   0  0  0  0  0  0  0  0  0  0  0  0
  -25.6965   -5.2223  -24.3512 C   0  0  0  0  0  0  0  0  0  0  0  0
  -19.1188   -7.4660  -36.0946 C   0  0  0  0  0  0  0  0  0  0  0  0
  -21.2562   -7.8208  -35.1088 C   0  0  0  0  0  0  0  0  0  0  0  0
  -21.0816   -6.6270  -34.4101 C   0  0  0  0  0  0  0  0  0  0  0  0
  -20.3124   -4.4038  -26.8538 C   0  0  0  0  0  0  0  0  0  0  0  0
  -17.9197   -4.7248  -20.9818 C   0  0  0  0  0  0  0  0  0  0  0  0
  -19.9157   -5.8797  -34.5775 C   0  0  0  0  0  0  0  0  0  0  0  0
  -23.4977   -4.5581  -24.9678 C   0  0  0  0  0  0  0  0  0  0  0  0
  -21.0115   -4.4615  -25.6393 C   0  0  0  0  0  0  0  0  0  0  0  0
  -18.2325   -4.2022  -25.6868 C   0  0  0  0  0  0  0  0  0  0  0  0
  -18.9177   -4.2807  -24.4694 C   0  0  0  0  0  0  0  0  0  0  0  0
  -21.2113   -4.7818  -33.1012 C   0  0  0  0  0  0  0  0  0  0  0  0
  -21.6308   -3.7352  -32.1607 C   0  0  0  0  0  0  0  0  0  0  0  0
  -20.8508   -5.4877  -29.0919 C   0  0  0  0  0  0  0  0  0  0  0  0
  -21.4665   -3.0720  -28.6351 C   0  0  0  0  0  0  0  0  0  0  0  0
  -21.7899   -5.4629  -30.2958 C   0  0  0  0  0  0  0  0  0  0  0  0
  -22.3465   -3.0906  -29.8867 C   0  0  0  0  0  0  0  0  0  0  0  0
  -22.5647   -4.9499  -27.2629 C   0  0  0  0  0  0  0  0  0  0  0  0
  -21.2781   -4.4744  -28.0111 C   0  0  0  0  0  0  0  0  0  0  0  0
  -16.1060   -5.2662  -25.7269 C   0  0  0  0  0  0  0  0  0  0  0  0
  -18.7936   -4.9283  -22.1845 C   0  0  0  0  0  0  0  0  0  0  0  0
  -25.6855   -4.4664  -23.2304 N   0  0  0  0  0  0  0  0  0  0  0  0
  -20.0199   -4.7673  -33.7738 N   0  0  0  0  0  0  0  0  0  0  0  0
  -20.2459   -8.1599  -35.9137 N   0  3  0  0  0  0  0  0  0  0  0  0
  -22.4037   -4.6037  -25.8372 N   0  0  0  0  0  0  0  0  0  0  0  0
  -21.8885   -4.1021  -30.8372 N   0  0  0  0  0  0  0  0  0  0  0  0
  -21.7124   -2.5961  -32.6180 O   0  0  0  0  0  0  0  0  0  0  0  0
  -16.8766   -4.0665  -25.7069 O   0  0  0  0  0  0  0  0  0  0  0  0
  -18.2327   -4.2266  -23.2913 O   0  0  0  0  0  0  0  0  0  0  0  0
  -15.6635   -4.1983  -17.8746 H   0  0  0  0  0  0  0  0  0  0  0  0
  -15.2490   -6.1115  -19.3988 H   0  0  0  0  0  0  0  0  0  0  0  0
  -17.5229   -2.6223  -18.3396 H   0  0  0  0  0  0  0  0  0  0  0  0
  -16.6852   -6.4516  -21.3828 H   0  0  0  0  0  0  0  0  0  0  0  0
  -18.9647   -2.9537  -20.3206 H   0  0  0  0  0  0  0  0  0  0  0  0
  -22.5727   -3.1766  -23.5803 H   0  0  0  0  0  0  0  0  0  0  0  0
  -24.7111   -5.9281  -26.1267 H   0  0  0  0  0  0  0  0  0  0  0  0
  -17.9860   -5.7006  -35.5623 H   0  0  0  0  0  0  0  0  0  0  0  0
  -22.8664   -6.2161  -33.1132 H   0  0  0  0  0  0  0  0  0  0  0  0
  -18.4017   -4.1989  -27.8369 H   0  0  0  0  0  0  0  0  0  0  0  0
  -20.8309   -4.4716  -23.4901 H   0  0  0  0  0  0  0  0  0  0  0  0
  -24.5704   -3.1580  -22.0912 H   0  0  0  0  0  0  0  0  0  0  0  0
  -26.6098   -5.7833  -24.5203 H   0  0  0  0  0  0  0  0  0  0  0  0
  -18.4107   -7.8987  -36.7892 H   0  0  0  0  0  0  0  0  0  0  0  0
  -22.1083   -8.4843  -35.0649 H   0  0  0  0  0  0  0  0  0  0  0  0
  -20.8106   -6.5033  -28.6780 H   0  0  0  0  0  0  0  0  0  0  0  0
  -19.8349   -5.2642  -29.4434 H   0  0  0  0  0  0  0  0  0  0  0  0
  -20.4874   -2.6562  -28.9110 H   0  0  0  0  0  0  0  0  0  0  0  0
  -21.8960   -2.3754  -27.9034 H   0  0  0  0  0  0  0  0  0  0  0  0
  -21.4343   -6.1733  -31.0461 H   0  0  0  0  0  0  0  0  0  0  0  0
  -22.8009   -5.7763  -30.0104 H   0  0  0  0  0  0  0  0  0  0  0  0
  -23.3854   -3.3280  -29.6333 H   0  0  0  0  0  0  0  0  0  0  0  0
  -22.3488   -2.0965  -30.3452 H   0  0  0  0  0  0  0  0  0  0  0  0
  -23.4764   -4.4977  -27.6687 H   0  0  0  0  0  0  0  0  0  0  0  0
  -22.6778   -6.0403  -27.3442 H   0  0  0  0  0  0  0  0  0  0  0  0
  -15.0422   -5.0167  -25.7417 H   0  0  0  0  0  0  0  0  0  0  0  0
  -16.3660   -5.8526  -26.6118 H   0  0  0  0  0  0  0  0  0  0  0  0
  -16.3292   -5.8470  -24.8289 H   0  0  0  0  0  0  0  0  0  0  0  0
  -18.8707   -5.9912  -22.4374 H   0  0  0  0  0  0  0  0  0  0  0  0
  -19.8053   -4.5529  -21.9965 H   0  0  0  0  0  0  0  0  0  0  0  0
  -19.3159   -4.0462  -33.6944 H   0  0  0  0  0  0  0  0  0  0  0  0
  -20.3445   -9.0295  -36.4389 H   0  0  0  0  0  0  0  0  0  0  0  0
  1  2  2  0  0  0  0
  1  3  1  0  0  0  0
  2  4  1  0  0  0  0
  3  5  2  0  0  0  0
  4 18  2  0  0  0  0
  5 18  1  0  0  0  0
  6 12  1  0  0  0  0
  6 20  2  0  0  0  0
  7 13  2  0  0  0  0
  7 20  1  0  0  0  0
  8 14  1  0  0  0  0
  8 19  2  0  0  0  0
  9 16  1  0  0  0  0
  9 24  2  0  0  0  0
 10 17  1  0  0  0  0
 10 22  2  0  0  0  0
 11 21  1  0  0  0  0
 11 23  2  0  0  0  0
 12 34  2  0  0  0  0
 13 34  1  0  0  0  0
 14 36  2  0  0  0  0
 15 16  2  0  0  0  0
 15 36  1  0  0  0  0
 16 19  1  0  0  0  0
 17 21  2  0  0  0  0
 17 31  1  0  0  0  0
 18 33  1  0  0  0  0
 19 35  1  0  0  0  0
 20 37  1  0  0  0  0
 21 37  1  0  0  0  0
 22 23  1  0  0  0  0
 22 40  1  0  0  0  0
 23 41  1  0  0  0  0
 24 25  1  0  0  0  0
 24 35  1  0  0  0  0
 25 38  1  0  0  0  0
 25 39  2  0  0  0  0
 26 28  1  0  0  0  0
 26 31  1  0  0  0  0
 27 29  1  0  0  0  0
 27 31  1  0  0  0  0
 28 38  1  0  0  0  0
 29 38  1  0  0  0  0
 30 31  1  0  0  0  0
 30 37  1  0  0  0  0
 32 40  1  0  0  0  0
 33 41  1  0  0  0  0
  1 42  1  0  0  0  0
  2 43  1  0  0  0  0
  3 44  1  0  0  0  0
  4 45  1  0  0  0  0
  5 46  1  0  0  0  0
  6 47  1  0  0  0  0
  7 48  1  0  0  0  0
  8 49  1  0  0  0  0
  9 50  1  0  0  0  0
 10 51  1  0  0  0  0
 11 52  1  0  0  0  0
 12 53  1  0  0  0  0
 13 54  1  0  0  0  0
 14 55  1  0  0  0  0
 15 56  1  0  0  0  0
 26 57  1  0  0  0  0
 26 58  1  0  0  0  0
 27 59  1  0  0  0  0
 27 60  1  0  0  0  0
 28 61  1  0  0  0  0
 28 62  1  0  0  0  0
 29 63  1  0  0  0  0
 29 64  1  0  0  0  0
 30 65  1  0  0  0  0
 30 66  1  0  0  0  0
 32 67  1  0  0  0  0
 32 68  1  0  0  0  0
 32 69  1  0  0  0  0
 33 70  1  0  0  0  0
 33 71  1  0  0  0  0
 35 72  1  0  0  0  0
 36 73  1  0  0  0  0
M  CHG  1  36   1
M  END
> <SMILES>
COc1cc2c(cc1OCc1ccccc1)N(CC12CCN(CC1)C(=O)c1cc2cnccc2[nH]1)c1ccncc1

> <FORMATTED_ID>
H3D-015661

> <MOLFORMULA>
C33H31N5O3

> <Exact Mass>
545.24

> <XLogP>
5.72

> <TPSA_NOPS>
83.6

> <s_m_source_file>
ligprep_h3d.sdf

> <i_m_source_file_index>
5420

> <i_lp_mmshare_version>
55123

> <i_f3d_flags>
0

> <s_epik_input>
W2NIXTFbY0hdW2NIXVtjSF1bY0hdYzFbQ0gyXU9jKGMoW2NIXTIpT1tDSDNdKVtjSF1jKE4oW0NIMl0zKWM0W2NIXVtjSF1uW2NIXVtjSF00KWMyQzM1W0NIMl1bQ0gyXU4oW0NIMl1bQ0gyXTUpQyg9TyljKFtjSF02KVtuSF1jKGM2NylbY0hdW2NIXW5bY0hdNw==

> <s_epik_cmdline>
J2VwaWtfcHl0aG9uJywgJy1waHQnLCAnMC41JywgJy1waCcsICc3LjUnLCAnLXRuJywgJzgnLCAnLW1hJywgJzUwMCcsICctaW1hZScsICc8aW5maWxlLm1hZT4nLCAnLW9tYWUnLCAnPG91dGZpbGUubWFlPic=

> <r_lp_tautomer_probability>
1

> <r_epik_Ionization_Penalty>
0.39154

> <r_epik_Ionization_Penalty_Charging>
0.206766

> <r_epik_Ionization_Penalty_Neutral>
0.184775

> <r_epik_State_Penalty>
-0

> <r_epik_Charging_Adjusted_Penalty>
0.206766

> <i_epik_Tot_Q>
1

> <i_epik_Tot_abs_Q>
1

> <s_lp_Force_Field>
S-OPLS

> <r_lp_Energy>
82.8772

> <b_lp_Chiralities_Consistent>
1

> <s_lp_Variant>
ligprep_h3d.sdf:5420-1

> <ROCS_ShapeQuery>
_7L13

> <ROCS_TanimotoCombo>
0.709 

> <ROCS_ShapeTanimoto>
0.610 

> <ROCS_ColorTanimoto>
0.099 

> <ROCS_RefTversky>
0.812 

> <ROCS_RefColorTversky>
0.225 

> <ROCS_RefTverskyCombo>
1.037 

> <ROCS_FitTversky>
0.710 

> <ROCS_FitColorTversky>
0.151 

> <ROCS_FitTverskyCombo>
0.861 

> <ROCS_ColorScore>
-2.084

> <ROCS_Overlap>
1359.231

> <ROCS_Rank>
98                  

$$$$
ligprep_h3d.sdf:5656_1019
  -OEChem-08212117123D

 52 55  0     0  0  0  0  0  0999 V2000
  -17.9937   -4.4928  -28.3483 C   0  0  0  0  0  0  0  0  0  0  0  0
  -19.3167   -4.2796  -28.7433 C   0  0  0  0  0  0  0  0  0  0  0  0
  -24.8031   -4.8705  -25.3602 C   0  0  0  0  0  0  0  0  0  0  0  0
  -19.8034   -4.6698  -33.7368 C   0  0  0  0  0  0  0  0  0  0  0  0
  -21.0974   -6.5731  -33.0018 C   0  0  0  0  0  0  0  0  0  0  0  0
  -19.3235   -5.4126  -34.8154 C   0  0  0  0  0  0  0  0  0  0  0  0
  -20.6176   -7.3159  -34.0805 C   0  0  0  0  0  0  0  0  0  0  0  0
  -25.8319   -4.9350  -24.4205 C   0  0  0  0  0  0  0  0  0  0  0  0
  -18.7372   -4.8604  -26.0931 C   0  0  0  0  0  0  0  0  0  0  0  0
  -24.2765   -4.3240  -22.6756 C   0  0  0  0  0  0  0  0  0  0  0  0
  -20.0673   -4.6467  -26.4921 C   0  0  0  0  0  0  0  0  0  0  0  0
  -17.7034   -4.7817  -27.0217 C   0  0  0  0  0  0  0  0  0  0  0  0
  -20.3745   -4.3516  -27.8182 C   0  0  0  0  0  0  0  0  0  0  0  0
  -23.5110   -4.5328  -24.9576 C   0  0  0  0  0  0  0  0  0  0  0  0
  -20.6904   -5.2500  -32.8299 C   0  0  0  0  0  0  0  0  0  0  0  0
  -19.7306   -6.7357  -34.9873 C   0  0  0  0  0  0  0  0  0  0  0  0
  -25.5686   -4.6617  -23.0782 C   0  0  0  0  0  0  0  0  0  0  0  0
  -23.2477   -4.2596  -23.6153 C   0  0  0  0  0  0  0  0  0  0  0  0
  -21.1406   -4.7684  -25.4926 C   0  0  0  0  0  0  0  0  0  0  0  0
  -22.7857   -4.1218  -27.2726 C   0  0  0  0  0  0  0  0  0  0  0  0
  -21.5553   -4.9682  -30.4811 C   0  0  0  0  0  0  0  0  0  0  0  0
  -16.2932   -5.0089  -26.5954 C   0  0  0  0  0  0  0  0  0  0  0  0
  -19.7194   -8.8072  -36.1554 C   0  0  0  0  0  0  0  0  0  0  0  0
  -22.0194   -3.8234  -29.6015 C   0  0  0  0  0  0  0  0  0  0  0  0
  -22.4438   -4.4672  -25.9361 N   0  0  0  0  0  0  0  0  0  0  0  0
  -21.7264   -4.1221  -28.1985 N   0  0  0  0  0  0  0  0  0  0  0  0
  -21.1773   -4.4965  -31.7354 N   0  0  0  0  0  0  0  0  0  0  0  0
  -20.8391   -5.1782  -24.3728 O   0  0  0  0  0  0  0  0  0  0  0  0
  -23.9296   -3.7934  -27.6106 O   0  0  0  0  0  0  0  0  0  0  0  0
  -21.5282   -6.1286  -30.0838 O   0  0  0  0  0  0  0  0  0  0  0  0
  -19.2623   -7.4606  -36.0398 O   0  0  0  0  0  0  0  0  0  0  0  0
  -26.5571   -4.7228  -22.1762 F   0  0  0  0  0  0  0  0  0  0  0  0
  -22.0093   -3.9356  -23.2167 F   0  0  0  0  0  0  0  0  0  0  0  0
  -17.1988   -4.4282  -29.0867 H   0  0  0  0  0  0  0  0  0  0  0  0
  -19.4889   -4.0529  -29.7919 H   0  0  0  0  0  0  0  0  0  0  0  0
  -25.0199   -5.0864  -26.4033 H   0  0  0  0  0  0  0  0  0  0  0  0
  -19.4796   -3.6395  -33.6127 H   0  0  0  0  0  0  0  0  0  0  0  0
  -21.7882   -7.0356  -32.3013 H   0  0  0  0  0  0  0  0  0  0  0  0
  -18.6328   -4.9551  -35.5186 H   0  0  0  0  0  0  0  0  0  0  0  0
  -20.9382   -8.3461  -34.2090 H   0  0  0  0  0  0  0  0  0  0  0  0
  -26.8378   -5.1988  -24.7336 H   0  0  0  0  0  0  0  0  0  0  0  0
  -18.4971   -5.0922  -25.0578 H   0  0  0  0  0  0  0  0  0  0  0  0
  -24.0720   -4.1102  -21.6309 H   0  0  0  0  0  0  0  0  0  0  0  0
  -15.8287   -4.0632  -26.2897 H   0  0  0  0  0  0  0  0  0  0  0  0
  -16.2391   -5.7108  -25.7527 H   0  0  0  0  0  0  0  0  0  0  0  0
  -15.6955   -5.4428  -27.4080 H   0  0  0  0  0  0  0  0  0  0  0  0
  -19.2698   -9.2710  -37.0368 H   0  0  0  0  0  0  0  0  0  0  0  0
  -20.8090   -8.8170  -36.2411 H   0  0  0  0  0  0  0  0  0  0  0  0
  -19.4212   -9.3617  -35.2625 H   0  0  0  0  0  0  0  0  0  0  0  0
  -23.0965   -3.6742  -29.7264 H   0  0  0  0  0  0  0  0  0  0  0  0
  -21.4989   -2.9091  -29.9032 H   0  0  0  0  0  0  0  0  0  0  0  0
  -21.2548   -3.4947  -31.8980 H   0  0  0  0  0  0  0  0  0  0  0  0
  1  2  2  0  0  0  0
  1 12  1  0  0  0  0
  2 13  1  0  0  0  0
  3  8  1  0  0  0  0
  3 14  2  0  0  0  0
  4  6  1  0  0  0  0
  4 15  2  0  0  0  0
  5  7  2  0  0  0  0
  5 15  1  0  0  0  0
  6 16  2  0  0  0  0
  7 16  1  0  0  0  0
  8 17  2  0  0  0  0
  9 11  1  0  0  0  0
  9 12  2  0  0  0  0
 10 17  1  0  0  0  0
 10 18  2  0  0  0  0
 11 13  2  0  0  0  0
 11 19  1  0  0  0  0
 12 22  1  0  0  0  0
 13 26  1  0  0  0  0
 14 18  1  0  0  0  0
 14 25  1  0  0  0  0
 15 27  1  0  0  0  0
 16 31  1  0  0  0  0
 17 32  1  0  0  0  0
 18 33  1  0  0  0  0
 19 25  1  0  0  0  0
 19 28  2  0  0  0  0
 20 25  1  0  0  0  0
 20 26  1  0  0  0  0
 20 29  2  0  0  0  0
 21 24  1  0  0  0  0
 21 27  1  0  0  0  0
 21 30  2  0  0  0  0
 23 31  1  0  0  0  0
 24 26  1  0  0  0  0
  1 34  1  0  0  0  0
  2 35  1  0  0  0  0
  3 36  1  0  0  0  0
  4 37  1  0  0  0  0
  5 38  1  0  0  0  0
  6 39  1  0  0  0  0
  7 40  1  0  0  0  0
  8 41  1  0  0  0  0
  9 42  1  0  0  0  0
 10 43  1  0  0  0  0
 22 44  1  0  0  0  0
 22 45  1  0  0  0  0
 22 46  1  0  0  0  0
 23 47  1  0  0  0  0
 23 48  1  0  0  0  0
 23 49  1  0  0  0  0
 24 50  1  0  0  0  0
 24 51  1  0  0  0  0
 27 52  1  0  0  0  0
M  END
> <SMILES>
COc1ccc(cc1)NC(=O)CN1C(=O)N(C(=O)c2cc(ccc21)C)c1ccc(cc1F)F

> <FORMATTED_ID>
H3D-014246

> <MOLFORMULA>
C24H19F2N3O4

> <Exact Mass>
451.13

> <XLogP>
4.48

> <TPSA_NOPS>
78.9

> <s_m_source_file>
ligprep_h3d.sdf

> <i_m_source_file_index>
5656

> <i_lp_mmshare_version>
55123

> <i_f3d_flags>
0

> <s_epik_input>
W0NIM11PYzFbY0hdW2NIXWMoW2NIXVtjSF0xKVtOSF1DKD1PKVtDSDJdbihjKGMyMylbY0hdW2NIXWMoW2NIXTMpW0NIM10pYyg9TyluKGMyPU8pLWM0W2NIXVtjSF1jKEYpW2NIXWM0Rg==

> <s_epik_cmdline>
J2VwaWtfcHl0aG9uJywgJy1waHQnLCAnMC41JywgJy1waCcsICc3LjUnLCAnLXRuJywgJzgnLCAnLW1hJywgJzUwMCcsICctaW1hZScsICc8aW5maWxlLm1hZT4nLCAnLW9tYWUnLCAnPG91dGZpbGUubWFlPic=

> <r_lp_tautomer_probability>
1

> <r_epik_Ionization_Penalty>
3.45565e-06

> <r_epik_Ionization_Penalty_Charging>
7.29488e-09

> <r_epik_Ionization_Penalty_Neutral>
3.44835e-06

> <r_epik_State_Penalty>
-0

> <r_epik_Charging_Adjusted_Penalty>
7.29488e-09

> <i_epik_Tot_Q>
0

> <i_epik_Tot_abs_Q>
0

> <s_lp_Force_Field>
S-OPLS

> <r_lp_Energy>
57.5787

> <b_lp_Chiralities_Consistent>
1

> <s_lp_Variant>
ligprep_h3d.sdf:5656-1

> <ROCS_ShapeQuery>
_7L13

> <ROCS_TanimotoCombo>
0.850 

> <ROCS_ShapeTanimoto>
0.725 

> <ROCS_ColorTanimoto>
0.125 

> <ROCS_RefTversky>
0.812 

> <ROCS_RefColorTversky>
0.222 

> <ROCS_RefTverskyCombo>
1.034 

> <ROCS_FitTversky>
0.871 

> <ROCS_FitColorTversky>
0.222 

> <ROCS_FitTverskyCombo>
1.093 

> <ROCS_ColorScore>
-1.997

> <ROCS_Overlap>
1343.195

> <ROCS_Rank>
99                  

$$$$
ligprep_h3d.sdf:1205_777
  -OEChem-08212117123D

 85 90  0     1  0  0  0  0  0999 V2000
  -26.0253   -4.5465  -23.1542 C   0  0  0  0  0  0  0  0  0  0  0  0
  -25.2126   -5.5927  -22.7277 C   0  0  0  0  0  0  0  0  0  0  0  0
  -25.5242   -3.5867  -24.0339 C   0  0  0  0  0  0  0  0  0  0  0  0
  -23.8956   -5.6830  -23.1793 C   0  0  0  0  0  0  0  0  0  0  0  0
  -23.6801   -2.7046  -25.3845 C   0  0  0  0  0  0  0  0  0  0  0  0
  -22.3632   -2.7949  -25.8361 C   0  0  0  0  0  0  0  0  0  0  0  0
  -22.0515   -4.8009  -24.5298 C   0  0  0  0  0  0  0  0  0  0  0  0
  -19.0558   -5.5900  -34.4888 C   0  0  0  0  0  0  0  0  0  0  0  0
  -18.1689   -6.6181  -37.4363 C   0  0  0  0  0  0  0  0  0  0  0  0
  -24.2011   -3.6619  -24.4988 C   0  0  0  0  0  0  0  0  0  0  0  0
  -23.3746   -4.7257  -24.0650 C   0  0  0  0  0  0  0  0  0  0  0  0
  -18.8078   -7.2905  -36.3773 C   0  0  0  0  0  0  0  0  0  0  0  0
  -21.5505   -3.8410  -25.4096 C   0  0  0  0  0  0  0  0  0  0  0  0
  -19.4149   -6.7311  -35.1636 C   0  0  0  0  0  0  0  0  0  0  0  0
  -19.9563   -5.5218  -33.4088 C   0  0  0  0  0  0  0  0  0  0  0  0
  -18.7437   -8.6177  -36.7249 C   0  0  0  0  0  0  0  0  0  0  0  0
  -20.0208   -4.4894  -32.3599 C   0  0  0  0  0  0  0  0  0  0  0  0
  -21.0064   -4.5407  -29.4547 C   0  0  0  0  0  0  0  0  0  0  0  0
  -18.0197   -6.1394  -26.3330 C   0  0  0  0  0  0  0  0  0  0  0  0
  -23.1097   -1.8491  -32.5717 C   0  0  0  0  0  0  0  0  0  0  0  0
  -24.8988   -3.5001  -31.9025 C   0  0  0  0  0  0  0  0  0  0  0  0
  -22.8629   -3.1593  -30.3861 C   0  0  0  0  0  0  0  0  0  0  0  0
  -22.5614   -4.3207  -32.4525 C   0  0  0  0  0  0  0  0  0  0  0  0
  -24.0023   -0.7054  -32.1059 C   0  0  0  0  0  0  0  0  0  0  0  0
  -25.7604   -2.3469  -31.4099 C   0  0  0  0  0  0  0  0  0  0  0  0
  -21.3869   -3.5450  -30.5059 C   0  0  2  0  0  0  0  0  0  0  0  0
  -23.3948   -3.1834  -31.8379 C   0  0  0  0  0  0  0  0  0  0  0  0
  -19.2293   -9.8331  -36.0420 C   0  0  0  0  0  0  0  0  0  0  0  0
  -17.7830   -9.8336  -38.7036 C   0  0  0  0  0  0  0  0  0  0  0  0
  -16.1571   -6.3521  -24.7145 C   0  0  0  0  0  0  0  0  0  0  0  0
  -20.1248   -3.9372  -25.8999 C   0  0  0  0  0  0  0  0  0  0  0  0
  -18.5451   -5.2187  -27.4226 C   0  0  0  0  0  0  0  0  0  0  0  0
  -19.9912   -4.7593  -27.1955 C   0  0  2  0  0  0  0  0  0  0  0  0
  -17.7309   -7.4496  -38.3855 N   0  0  0  0  0  0  0  0  0  0  0  0
  -20.8223   -6.5385  -33.3945 N   0  0  0  0  0  0  0  0  0  0  0  0
  -20.4678   -7.2564  -34.4739 N   0  0  0  0  0  0  0  0  0  0  0  0
  -18.0952   -8.6581  -37.9241 N   0  0  0  0  0  0  0  0  0  0  0  0
  -21.2610   -4.2140  -31.7944 N   0  0  0  0  0  0  0  0  0  0  0  0
  -20.4308   -3.9800  -28.3306 N   0  0  0  0  0  0  0  0  0  0  0  0
  -16.8592   -5.6429  -25.7573 N   0  0  0  0  0  0  0  0  0  0  0  0
  -25.4313   -1.1217  -32.1946 N   0  3  0  0  0  0  0  0  0  0  0  0
  -18.9655   -3.9420  -32.0448 O   0  0  0  0  0  0  0  0  0  0  0  0
  -21.2197   -5.7323  -29.6458 O   0  0  0  0  0  0  0  0  0  0  0  0
  -18.5569   -7.2007  -26.0274 O   0  0  0  0  0  0  0  0  0  0  0  0
  -27.0501   -4.4769  -22.8018 H   0  0  0  0  0  0  0  0  0  0  0  0
  -25.6032   -6.3392  -22.0424 H   0  0  0  0  0  0  0  0  0  0  0  0
  -26.1779   -2.7778  -24.3542 H   0  0  0  0  0  0  0  0  0  0  0  0
  -23.2783   -6.5093  -22.8325 H   0  0  0  0  0  0  0  0  0  0  0  0
  -24.2975   -1.8781  -25.7309 H   0  0  0  0  0  0  0  0  0  0  0  0
  -21.9806   -2.0428  -26.5211 H   0  0  0  0  0  0  0  0  0  0  0  0
  -21.4052   -5.6145  -24.2042 H   0  0  0  0  0  0  0  0  0  0  0  0
  -18.2579   -4.9053  -34.7403 H   0  0  0  0  0  0  0  0  0  0  0  0
  -18.0017   -5.5574  -37.5598 H   0  0  0  0  0  0  0  0  0  0  0  0
  -23.2635   -1.9910  -33.6501 H   0  0  0  0  0  0  0  0  0  0  0  0
  -22.0612   -1.5511  -32.4506 H   0  0  0  0  0  0  0  0  0  0  0  0
  -25.1281   -4.3962  -31.3128 H   0  0  0  0  0  0  0  0  0  0  0  0
  -25.1778   -3.7376  -32.9379 H   0  0  0  0  0  0  0  0  0  0  0  0
  -23.4110   -3.8791  -29.7646 H   0  0  0  0  0  0  0  0  0  0  0  0
  -22.9718   -2.1807  -29.9088 H   0  0  0  0  0  0  0  0  0  0  0  0
  -22.9674   -5.3063  -32.1951 H   0  0  0  0  0  0  0  0  0  0  0  0
  -22.4785   -4.2507  -33.5410 H   0  0  0  0  0  0  0  0  0  0  0  0
  -23.8105   -0.4132  -31.0693 H   0  0  0  0  0  0  0  0  0  0  0  0
  -23.8873    0.1738  -32.7471 H   0  0  0  0  0  0  0  0  0  0  0  0
  -26.8241   -2.5490  -31.5670 H   0  0  0  0  0  0  0  0  0  0  0  0
  -25.5909   -2.1170  -30.3533 H   0  0  0  0  0  0  0  0  0  0  0  0
  -20.7104   -2.6850  -30.4689 H   0  0  0  0  0  0  0  0  0  0  0  0
  -20.2602  -10.0753  -36.3477 H   0  0  0  0  0  0  0  0  0  0  0  0
  -18.5990  -10.7114  -36.2627 H   0  0  0  0  0  0  0  0  0  0  0  0
  -19.2225   -9.7213  -34.9442 H   0  0  0  0  0  0  0  0  0  0  0  0
  -18.6203  -10.0215  -39.3807 H   0  0  0  0  0  0  0  0  0  0  0  0
  -16.8640   -9.6609  -39.2707 H   0  0  0  0  0  0  0  0  0  0  0  0
  -17.6348  -10.6837  -38.0319 H   0  0  0  0  0  0  0  0  0  0  0  0
  -16.5443   -6.0400  -23.7334 H   0  0  0  0  0  0  0  0  0  0  0  0
  -16.3087   -7.4342  -24.8411 H   0  0  0  0  0  0  0  0  0  0  0  0
  -15.0829   -6.1229  -24.7745 H   0  0  0  0  0  0  0  0  0  0  0  0
  -19.5237   -4.3799  -25.0960 H   0  0  0  0  0  0  0  0  0  0  0  0
  -19.7205   -2.9273  -26.0509 H   0  0  0  0  0  0  0  0  0  0  0  0
  -17.8801   -4.3507  -27.5151 H   0  0  0  0  0  0  0  0  0  0  0  0
  -18.4773   -5.7759  -28.3665 H   0  0  0  0  0  0  0  0  0  0  0  0
  -20.6505   -5.6350  -27.1604 H   0  0  0  0  0  0  0  0  0  0  0  0
  -20.9910   -8.0982  -34.6810 H   0  0  0  0  0  0  0  0  0  0  0  0
  -20.3108   -2.9720  -28.3005 H   0  0  0  0  0  0  0  0  0  0  0  0
  -16.4920   -4.7523  -26.0799 H   0  0  0  0  0  0  0  0  0  0  0  0
  -26.0275   -0.3465  -31.8738 H   0  0  0  0  0  0  0  0  0  0  0  0
  -25.6821   -1.2715  -33.1820 H   0  0  0  0  0  0  0  0  0  0  0  0
  1  2  1  0  0  0  0
  1  3  2  0  0  0  0
  2  4  2  0  0  0  0
  3 10  1  0  0  0  0
  4 11  1  0  0  0  0
  5  6  1  0  0  0  0
  5 10  2  0  0  0  0
  6 13  2  0  0  0  0
  7 11  2  0  0  0  0
  7 13  1  0  0  0  0
  8 14  2  0  0  0  0
  8 15  1  0  0  0  0
  9 12  1  0  0  0  0
  9 34  2  0  0  0  0
 10 11  1  0  0  0  0
 12 14  1  0  0  0  0
 12 16  2  0  0  0  0
 13 31  1  0  0  0  0
 14 36  1  0  0  0  0
 15 17  1  0  0  0  0
 15 35  2  0  0  0  0
 16 28  1  0  0  0  0
 16 37  1  0  0  0  0
 17 38  1  0  0  0  0
 17 42  2  0  0  0  0
 18 26  1  0  0  0  0
 18 39  1  0  0  0  0
 18 43  2  0  0  0  0
 19 32  1  0  0  0  0
 19 40  1  0  0  0  0
 19 44  2  0  0  0  0
 20 24  1  0  0  0  0
 20 27  1  0  0  0  0
 21 25  1  0  0  0  0
 21 27  1  0  0  0  0
 22 26  1  0  0  0  0
 22 27  1  0  0  0  0
 23 27  1  0  0  0  0
 23 38  1  0  0  0  0
 24 41  1  0  0  0  0
 25 41  1  0  0  0  0
 26 38  1  0  0  0  0
 29 37  1  0  0  0  0
 30 40  1  0  0  0  0
 31 33  1  0  0  0  0
 32 33  1  0  0  0  0
 33 39  1  0  0  0  0
 34 37  1  0  0  0  0
 35 36  1  0  0  0  0
  1 45  1  0  0  0  0
  2 46  1  0  0  0  0
  3 47  1  0  0  0  0
  4 48  1  0  0  0  0
  5 49  1  0  0  0  0
  6 50  1  0  0  0  0
  7 51  1  0  0  0  0
  8 52  1  0  0  0  0
  9 53  1  0  0  0  0
 20 54  1  0  0  0  0
 20 55  1  0  0  0  0
 21 56  1  0  0  0  0
 21 57  1  0  0  0  0
 22 58  1  0  0  0  0
 22 59  1  0  0  0  0
 23 60  1  0  0  0  0
 23 61  1  0  0  0  0
 24 62  1  0  0  0  0
 24 63  1  0  0  0  0
 25 64  1  0  0  0  0
 25 65  1  0  0  0  0
 26 66  1  0  0  0  0
 28 67  1  0  0  0  0
 28 68  1  0  0  0  0
 28 69  1  0  0  0  0
 29 70  1  0  0  0  0
 29 71  1  0  0  0  0
 29 72  1  0  0  0  0
 30 73  1  0  0  0  0
 30 74  1  0  0  0  0
 30 75  1  0  0  0  0
 31 76  1  0  0  0  0
 31 77  1  0  0  0  0
 32 78  1  0  0  0  0
 32 79  1  0  0  0  0
 33 80  1  0  0  0  0
 36 81  1  0  0  0  0
 39 82  1  0  0  0  0
 40 83  1  0  0  0  0
 41 84  1  0  0  0  0
 41 85  1  0  0  0  0
M  CHG  1  41   1
M  END
> <SMILES>
CNC(=O)C[C@@H](Cc1ccc2ccccc2c1)NC(=O)C1CC2(CCNCC2)CN1C(=O)c1cc([nH]n1)-c1cnn(c1C)C

> <FORMATTED_ID>
H3D-008332

> <MOLFORMULA>
C33H40N8O3

> <Exact Mass>
596.32

> <XLogP>
3.96

> <TPSA_NOPS>
137

> <s_m_source_file>
ligprep_h3d.sdf

> <i_m_source_file_index>
1205

> <i_lp_mmshare_version>
55123

> <i_f3d_flags>
0

> <s_epik_input>
W2NIXTFbY0hdW2NIXVtjSF1jKGMxMilbY0hdYyhbY0hdW2NIXTIpW0NIMl1bQ0BIXShbQ0gyXUMoPU8pW05IXVtDSDNdKVtOSF1DKD1PKVtDQEhdKFtDSDJdQzM0W0NIMl1bQ0gyXVtOSF1bQ0gyXVtDSDJdMylOKFtDSDJdNClDKD1PKWM1W2NIXWMobltuSF01KS1jNltjSF1ubihbQ0gzXSljNltDSDNd

> <s_epik_cmdline>
J2VwaWtfcHl0aG9uJywgJy1waHQnLCAnMC41JywgJy1waCcsICc3LjUnLCAnLXRuJywgJzgnLCAnLW1hJywgJzUwMCcsICctaW1hZScsICc8aW5maWxlLm1hZT4nLCAnLW9tYWUnLCAnPG91dGZpbGUubWFlPic=

> <r_lp_tautomer_probability>
0.5

> <r_epik_Ionization_Penalty>
0.00240823

> <r_epik_Ionization_Penalty_Charging>
0.00227833

> <r_epik_Ionization_Penalty_Neutral>
0.0001299

> <r_epik_State_Penalty>
0.41068

> <r_epik_Charging_Adjusted_Penalty>
0.412958

> <i_epik_Tot_Q>
1

> <i_epik_Tot_abs_Q>
1

> <s_lp_Force_Field>
S-OPLS

> <r_lp_Energy>
36.99

> <b_lp_Chiralities_Consistent>
1

> <s_lp_Variant>
ligprep_h3d.sdf:1205-1

> <ROCS_ShapeQuery>
_7L13

> <ROCS_TanimotoCombo>
0.663 

> <ROCS_ShapeTanimoto>
0.588 

> <ROCS_ColorTanimoto>
0.075 

> <ROCS_RefTversky>
0.812 

> <ROCS_RefColorTversky>
0.187 

> <ROCS_RefTverskyCombo>
0.999 

> <ROCS_FitTversky>
0.681 

> <ROCS_FitColorTversky>
0.112 

> <ROCS_FitTverskyCombo>
0.792 

> <ROCS_ColorScore>
-1.748

> <ROCS_Overlap>
1362.830

> <ROCS_Rank>
100                 

$$$$
ligprep_h3d.sdf:2721_301
  -OEChem-08212117123D

112116  0     1  0  0  0  0  0999 V2000
  -24.9429   -4.1390  -22.8377 C   0  0  0  0  0  0  0  0  0  0  0  0
  -23.2337   -3.3644  -24.3594 C   0  0  0  0  0  0  0  0  0  0  0  0
  -24.0547   -3.1469  -23.2529 C   0  0  0  0  0  0  0  0  0  0  0  0
  -25.0101   -5.3488  -23.5290 C   0  0  0  0  0  0  0  0  0  0  0  0
  -23.3009   -4.5741  -25.0506 C   0  0  0  0  0  0  0  0  0  0  0  0
  -24.1891   -5.5663  -24.6354 C   0  0  0  0  0  0  0  0  0  0  0  0
  -21.6639   -4.7636  -29.2669 C   0  0  0  0  0  0  0  0  0  0  0  0
  -17.7041   -3.8982  -26.2967 C   0  0  0  0  0  0  0  0  0  0  0  0
  -21.0958   -4.3960  -28.1124 C   0  0  0  0  0  0  0  0  0  0  0  0
  -16.9319   -4.8319  -25.7091 C   0  0  0  0  0  0  0  0  0  0  0  0
  -21.9537   -3.8146  -27.0305 C   0  0  0  0  0  0  0  0  0  0  0  0
  -24.8556   -3.0531  -29.0702 C   0  0  0  0  0  0  0  0  0  0  0  0
  -21.6174   -5.4935  -35.5568 C   0  0  0  0  0  0  0  0  0  0  0  0
  -18.5967   -7.9851  -36.1024 C   0  0  0  0  0  0  0  0  0  0  0  0
  -22.0401   -4.8671  -34.2304 C   0  0  0  0  0  0  0  0  0  0  0  0
  -19.0251   -7.4896  -34.7179 C   0  0  0  0  0  0  0  0  0  0  0  0
  -19.4611   -5.2436  -30.6473 C   0  0  0  0  0  0  0  0  0  0  0  0
  -23.2066   -4.8925  -31.1232 C   0  0  0  0  0  0  0  0  0  0  0  0
  -20.9706   -5.3637  -30.4646 C   0  0  2  0  0  0  0  0  0  0  0  0
  -23.1241   -4.5661  -29.6149 C   0  0  2  0  0  0  0  0  0  0  0  0
  -20.0992   -5.3949  -35.7950 C   0  0  2  0  0  0  0  0  0  0  0  0
  -19.8028   -5.4704  -33.2015 C   0  0  1  0  0  0  0  0  0  0  0  0
  -19.6624   -5.9522  -37.1883 C   0  0  1  0  0  0  0  0  0  0  0  0
  -19.4944   -7.4802  -37.2267 C   0  0  2  0  0  0  0  0  0  0  0  0
  -19.0145   -5.9518  -31.9428 C   0  0  2  0  0  0  0  0  0  0  0  0
  -19.2218   -5.9553  -34.6093 C   0  0  1  0  0  0  0  0  0  0  0  0
  -21.3812   -5.5372  -33.0020 C   0  0  1  0  0  0  0  0  0  0  0  0
  -21.7514   -4.7457  -31.6561 C   0  0  1  0  0  0  0  0  0  0  0  0
  -23.9830   -1.8536  -22.5137 C   0  0  0  0  0  0  0  0  0  0  0  0
  -15.4397   -4.7585  -25.5504 C   0  0  0  0  0  0  0  0  0  0  0  0
  -17.5523   -6.0791  -25.1366 C   0  0  0  0  0  0  0  0  0  0  0  0
  -25.0271   -1.8749  -28.1600 C   0  0  0  0  0  0  0  0  0  0  0  0
  -20.5498   -5.4679  -38.3424 C   0  0  0  0  0  0  0  0  0  0  0  0
  -17.7966   -5.3177  -34.7492 C   0  0  0  0  0  0  0  0  0  0  0  0
  -21.9336   -6.9883  -32.9365 C   0  0  0  0  0  0  0  0  0  0  0  0
  -21.4771   -3.2083  -31.7959 C   0  0  0  0  0  0  0  0  0  0  0  0
  -29.2512   -7.6645  -24.5202 C   0  0  0  0  0  0  0  0  0  0  0  0
  -25.9674   -6.3985  -23.0689 C   0  0  0  0  0  0  0  0  0  0  0  0
  -19.1962   -3.9096  -26.4876 C   0  0  0  0  0  0  0  0  0  0  0  0
  -19.6095   -4.4521  -27.8629 C   0  0  0  0  0  0  0  0  0  0  0  0
  -28.1076   -7.6003  -23.5316 C   0  0  0  0  0  0  0  0  0  0  0  0
  -22.4607   -4.7788  -26.1714 N   0  0  0  0  0  0  0  0  0  0  0  0
  -27.1685   -6.5223  -23.9389 N   0  3  0  0  0  0  0  0  0  0  0  0
  -22.0854   -2.5972  -26.9593 O   0  0  0  0  0  0  0  0  0  0  0  0
  -25.7797   -3.7422  -29.4804 O   0  0  0  0  0  0  0  0  0  0  0  0
  -24.2577   -6.7511  -25.3091 O   0  0  0  0  0  0  0  0  0  0  0  0
  -20.7498   -8.1521  -37.2057 O   0  0  0  0  0  0  0  0  0  0  0  0
  -19.1469   -7.3584  -31.7675 O   0  0  0  0  0  0  0  0  0  0  0  0
  -23.5300   -3.2302  -29.3616 O   0  0  0  0  0  0  0  0  0  0  0  0
  -25.5828   -3.9687  -21.9750 H   0  0  0  0  0  0  0  0  0  0  0  0
  -22.5420   -2.5888  -24.6808 H   0  0  0  0  0  0  0  0  0  0  0  0
  -17.2156   -3.0055  -26.6865 H   0  0  0  0  0  0  0  0  0  0  0  0
  -21.9634   -6.5271  -35.6269 H   0  0  0  0  0  0  0  0  0  0  0  0
  -22.1504   -4.9466  -36.3431 H   0  0  0  0  0  0  0  0  0  0  0  0
  -17.5622   -7.6805  -36.2981 H   0  0  0  0  0  0  0  0  0  0  0  0
  -18.6017   -9.0823  -36.0901 H   0  0  0  0  0  0  0  0  0  0  0  0
  -21.7797   -3.8044  -34.2825 H   0  0  0  0  0  0  0  0  0  0  0  0
  -23.1331   -4.9117  -34.1441 H   0  0  0  0  0  0  0  0  0  0  0  0
  -19.9335   -8.0256  -34.4521 H   0  0  0  0  0  0  0  0  0  0  0  0
  -18.2605   -7.8247  -34.0072 H   0  0  0  0  0  0  0  0  0  0  0  0
  -19.1520   -4.1925  -30.6720 H   0  0  0  0  0  0  0  0  0  0  0  0
  -18.9548   -5.7050  -29.7905 H   0  0  0  0  0  0  0  0  0  0  0  0
  -23.5651   -5.9218  -31.2123 H   0  0  0  0  0  0  0  0  0  0  0  0
  -23.9104   -4.2463  -31.6587 H   0  0  0  0  0  0  0  0  0  0  0  0
  -21.1951   -6.4358  -30.3856 H   0  0  0  0  0  0  0  0  0  0  0  0
  -23.7630   -5.2444  -29.0391 H   0  0  0  0  0  0  0  0  0  0  0  0
  -19.8995   -4.3122  -35.8400 H   0  0  0  0  0  0  0  0  0  0  0  0
  -19.5848   -4.3957  -33.2382 H   0  0  0  0  0  0  0  0  0  0  0  0
  -18.6752   -5.5322  -37.4011 H   0  0  0  0  0  0  0  0  0  0  0  0
  -19.0105   -7.7567  -38.1956 H   0  0  0  0  0  0  0  0  0  0  0  0
  -17.9469   -5.7492  -32.0689 H   0  0  0  0  0  0  0  0  0  0  0  0
  -23.2396   -1.9140  -21.7094 H   0  0  0  0  0  0  0  0  0  0  0  0
  -23.7063   -1.0276  -23.1818 H   0  0  0  0  0  0  0  0  0  0  0  0
  -24.9535   -1.5930  -22.0717 H   0  0  0  0  0  0  0  0  0  0  0  0
  -15.1872   -4.2685  -24.6042 H   0  0  0  0  0  0  0  0  0  0  0  0
  -14.9477   -5.7326  -25.5550 H   0  0  0  0  0  0  0  0  0  0  0  0
  -15.0042   -4.1723  -26.3666 H   0  0  0  0  0  0  0  0  0  0  0  0
  -17.5919   -6.8658  -25.8973 H   0  0  0  0  0  0  0  0  0  0  0  0
  -16.9905   -6.4720  -24.2826 H   0  0  0  0  0  0  0  0  0  0  0  0
  -18.5722   -5.8727  -24.7958 H   0  0  0  0  0  0  0  0  0  0  0  0
  -24.9721   -2.2000  -27.1181 H   0  0  0  0  0  0  0  0  0  0  0  0
  -25.9840   -1.3867  -28.3614 H   0  0  0  0  0  0  0  0  0  0  0  0
  -24.2242   -1.1550  -28.3434 H   0  0  0  0  0  0  0  0  0  0  0  0
  -21.5594   -5.8453  -38.2060 H   0  0  0  0  0  0  0  0  0  0  0  0
  -20.1506   -5.8338  -39.2843 H   0  0  0  0  0  0  0  0  0  0  0  0
  -20.5677   -4.3816  -38.3541 H   0  0  0  0  0  0  0  0  0  0  0  0
  -17.9054   -4.2498  -34.6771 H   0  0  0  0  0  0  0  0  0  0  0  0
  -17.4016   -5.6024  -35.7085 H   0  0  0  0  0  0  0  0  0  0  0  0
  -17.1856   -5.6993  -33.9502 H   0  0  0  0  0  0  0  0  0  0  0  0
  -21.4909   -7.4851  -32.0858 H   0  0  0  0  0  0  0  0  0  0  0  0
  -21.6676   -7.4975  -33.8510 H   0  0  0  0  0  0  0  0  0  0  0  0
  -23.0073   -6.9414  -32.8292 H   0  0  0  0  0  0  0  0  0  0  0  0
  -20.4738   -3.0857  -32.1639 H   0  0  0  0  0  0  0  0  0  0  0  0
  -21.5895   -2.7647  -30.8224 H   0  0  0  0  0  0  0  0  0  0  0  0
  -22.1957   -2.8081  -32.4893 H   0  0  0  0  0  0  0  0  0  0  0  0
  -29.8046   -6.7204  -24.5199 H   0  0  0  0  0  0  0  0  0  0  0  0
  -28.8860   -7.8425  -25.5370 H   0  0  0  0  0  0  0  0  0  0  0  0
  -29.9510   -8.4671  -24.2644 H   0  0  0  0  0  0  0  0  0  0  0  0
  -25.4977   -7.3905  -23.0471 H   0  0  0  0  0  0  0  0  0  0  0  0
  -26.3385   -6.1892  -22.0570 H   0  0  0  0  0  0  0  0  0  0  0  0
  -19.7159   -4.4585  -25.6976 H   0  0  0  0  0  0  0  0  0  0  0  0
  -19.5471   -2.8729  -26.4064 H   0  0  0  0  0  0  0  0  0  0  0  0
  -19.2452   -5.4825  -27.9700 H   0  0  0  0  0  0  0  0  0  0  0  0
  -19.0953   -3.8731  -28.6404 H   0  0  0  0  0  0  0  0  0  0  0  0
  -27.5370   -8.5329  -23.5118 H   0  0  0  0  0  0  0  0  0  0  0  0
  -28.4571   -7.3581  -22.5241 H   0  0  0  0  0  0  0  0  0  0  0  0
  -22.1915   -5.7470  -26.3333 H   0  0  0  0  0  0  0  0  0  0  0  0
  -27.6696   -5.6239  -23.9495 H   0  0  0  0  0  0  0  0  0  0  0  0
  -26.8655   -6.6864  -24.9083 H   0  0  0  0  0  0  0  0  0  0  0  0
  -23.6305   -6.7505  -26.0481 H   0  0  0  0  0  0  0  0  0  0  0  0
  -20.5598   -9.0957  -37.3229 H   0  0  0  0  0  0  0  0  0  0  0  0
  -18.5757   -7.6003  -31.0215 H   0  0  0  0  0  0  0  0  0  0  0  0
  1  3  1  0  0  0  0
  1  4  2  0  0  0  0
  2  3  2  0  0  0  0
  2  5  1  0  0  0  0
  3 29  1  0  0  0  0
  4  6  1  0  0  0  0
  4 38  1  0  0  0  0
  5  6  2  0  0  0  0
  5 42  1  0  0  0  0
  6 46  1  0  0  0  0
  7  9  2  0  0  0  0
  7 19  1  0  0  0  0
  7 20  1  0  0  0  0
  8 10  2  0  0  0  0
  8 39  1  0  0  0  0
  9 11  1  0  0  0  0
  9 40  1  0  0  0  0
 10 30  1  0  0  0  0
 10 31  1  0  0  0  0
 11 42  1  0  0  0  0
 11 44  2  0  0  0  0
 12 32  1  0  0  0  0
 12 45  2  0  0  0  0
 12 49  1  0  0  0  0
 13 15  1  0  0  0  0
 13 21  1  0  0  0  0
 14 16  1  0  0  0  0
 14 24  1  0  0  0  0
 15 27  1  0  0  0  0
 16 26  1  0  0  0  0
 17 19  1  0  0  0  0
 17 25  1  0  0  0  0
 18 20  1  0  0  0  0
 18 28  1  0  0  0  0
 19 28  1  0  0  0  0
 20 49  1  0  0  0  0
 21 23  1  0  0  0  0
 21 26  1  0  0  0  0
 22 25  1  0  0  0  0
 22 26  1  0  0  0  0
 22 27  1  0  0  0  0
 23 24  1  0  0  0  0
 23 33  1  0  0  0  0
 24 47  1  0  0  0  0
 25 48  1  0  0  0  0
 26 34  1  0  0  0  0
 27 28  1  0  0  0  0
 27 35  1  0  0  0  0
 28 36  1  0  0  0  0
 37 41  1  0  0  0  0
 38 43  1  0  0  0  0
 39 40  1  0  0  0  0
 41 43  1  0  0  0  0
  1 50  1  0  0  0  0
  2 51  1  0  0  0  0
  8 52  1  0  0  0  0
 13 53  1  0  0  0  0
 13 54  1  0  0  0  0
 14 55  1  0  0  0  0
 14 56  1  0  0  0  0
 15 57  1  0  0  0  0
 15 58  1  0  0  0  0
 16 59  1  0  0  0  0
 16 60  1  0  0  0  0
 17 61  1  0  0  0  0
 17 62  1  0  0  0  0
 18 63  1  0  0  0  0
 18 64  1  0  0  0  0
 19 65  1  0  0  0  0
 20 66  1  0  0  0  0
 21 67  1  0  0  0  0
 22 68  1  0  0  0  0
 23 69  1  0  0  0  0
 24 70  1  0  0  0  0
 25 71  1  0  0  0  0
 29 72  1  0  0  0  0
 29 73  1  0  0  0  0
 29 74  1  0  0  0  0
 30 75  1  0  0  0  0
 30 76  1  0  0  0  0
 30 77  1  0  0  0  0
 31 78  1  0  0  0  0
 31 79  1  0  0  0  0
 31 80  1  0  0  0  0
 32 81  1  0  0  0  0
 32 82  1  0  0  0  0
 32 83  1  0  0  0  0
 33 84  1  0  0  0  0
 33 85  1  0  0  0  0
 33 86  1  0  0  0  0
 34 87  1  0  0  0  0
 34 88  1  0  0  0  0
 34 89  1  0  0  0  0
 35 90  1  0  0  0  0
 35 91  1  0  0  0  0
 35 92  1  0  0  0  0
 36 93  1  0  0  0  0
 36 94  1  0  0  0  0
 36 95  1  0  0  0  0
 37 96  1  0  0  0  0
 37 97  1  0  0  0  0
 37 98  1  0  0  0  0
 38 99  1  0  0  0  0
 38100  1  0  0  0  0
 39101  1  0  0  0  0
 39102  1  0  0  0  0
 40103  1  0  0  0  0
 40104  1  0  0  0  0
 41105  1  0  0  0  0
 41106  1  0  0  0  0
 42107  1  0  0  0  0
 43108  1  0  0  0  0
 43109  1  0  0  0  0
 46110  1  0  0  0  0
 47111  1  0  0  0  0
 48112  1  0  0  0  0
M  CHG  1  43   1
M  END
> <SMILES>
CCNCc1cc(cc(c1O)NC(=O)/C(=C/1\[C@H](C[C@@]2(C)[C@H]1C[C@@H](O)[C@H]1[C@@]3(C)CC[C@@H](O)[C@@H](C)C3CC[C@@]12C)OC(=O)C)CCC=C(C)C)C

> <FORMATTED_ID>
H3D-008271

> <MOLFORMULA>
C41H62N2O6

> <Exact Mass>
678.46

> <XLogP>
7.01

> <TPSA_NOPS>
128.1

> <s_m_source_file>
ligprep_h3d.sdf

> <i_m_source_file_index>
2721

> <i_lp_mmshare_version>
55123

> <i_f3d_flags>
0

> <s_epik_input>
W0NIM11bQ0gyXVtOSF1bQ0gyXWMxW2NIXWMoW0NIM10pW2NIXWMoYzFbT0hdKVtOSF1DKD1PKS9DKFtDSDJdW0NIMl1bQ0hdPUMoW0NIM10pW0NIM10pPUMoXFtDQEhdKFtDSDJdMilPQyg9TylbQ0gzXSlbQ0BASF0oW0NAXTIzW0NIM10pW0NIMl1bQ0BASF0oW09IXSlbQ0BIXTRbQ0BdNShbQ0gzXSlbQ0BASF0oW0NASF0oW0NIM10pW0NASF0oW09IXSlbQ0gyXVtDSDJdNSlbQ0gyXVtDSDJdW0NAXTM0W0NIM10=

> <s_epik_cmdline>
J2VwaWtfcHl0aG9uJywgJy1waHQnLCAnMC41JywgJy1waCcsICc3LjUnLCAnLXRuJywgJzgnLCAnLW1hJywgJzUwMCcsICctaW1hZScsICc8aW5maWxlLm1hZT4nLCAnLW9tYWUnLCAnPG91dGZpbGUubWFlPic=

> <r_lp_tautomer_probability>
1

> <r_epik_Ionization_Penalty>
0.0608554

> <r_epik_Ionization_Penalty_Charging>
0.0330935

> <r_epik_Ionization_Penalty_Neutral>
0.0277619

> <r_epik_State_Penalty>
-0

> <r_epik_Charging_Adjusted_Penalty>
0.0330935

> <i_epik_Tot_Q>
1

> <i_epik_Tot_abs_Q>
1

> <s_epik_Chemistry_Notes>
This compound has an ester and may undergo hydrolysis at high or low pH.

> <s_lp_Force_Field>
S-OPLS

> <r_lp_Energy>
91.4607

> <b_lp_Chiralities_Consistent>
1

> <s_lp_Variant>
ligprep_h3d.sdf:2721-1

> <ROCS_ShapeQuery>
_7L13

> <ROCS_TanimotoCombo>
0.626 

> <ROCS_ShapeTanimoto>
0.561 

> <ROCS_ColorTanimoto>
0.065 

> <ROCS_RefTversky>
0.812 

> <ROCS_RefColorTversky>
0.175 

> <ROCS_RefTverskyCombo>
0.987 

> <ROCS_FitTversky>
0.645 

> <ROCS_FitColorTversky>
0.094 

> <ROCS_FitTverskyCombo>
0.739 

> <ROCS_ColorScore>
-1.657

> <ROCS_Overlap>
1367.334

> <ROCS_Rank>
101                 

$$$$
ligprep_h3d.sdf:2365_98
  -OEChem-08212117123D

100104  0     1  0  0  0  0  0999 V2000
  -24.9795   -5.6018  -25.3459 C   0  0  0  0  0  0  0  0  0  0  0  0
  -23.4187   -4.0538  -24.3435 C   0  0  0  0  0  0  0  0  0  0  0  0
  -25.8663   -5.3915  -24.2900 C   0  0  0  0  0  0  0  0  0  0  0  0
  -24.3055   -3.8434  -23.2876 C   0  0  0  0  0  0  0  0  0  0  0  0
  -23.7557   -4.9330  -25.3727 C   0  0  0  0  0  0  0  0  0  0  0  0
  -25.5293   -4.5123  -23.2608 C   0  0  0  0  0  0  0  0  0  0  0  0
  -21.5849   -4.6511  -29.3350 C   0  0  0  0  0  0  0  0  0  0  0  0
  -18.1335   -6.0959  -25.9807 C   0  0  0  0  0  0  0  0  0  0  0  0
  -21.1319   -4.8238  -28.0878 C   0  0  0  0  0  0  0  0  0  0  0  0
  -17.0494   -5.4869  -25.4638 C   0  0  0  0  0  0  0  0  0  0  0  0
  -21.9147   -4.2573  -26.9429 C   0  0  0  0  0  0  0  0  0  0  0  0
  -23.9900   -1.9428  -28.9575 C   0  0  0  0  0  0  0  0  0  0  0  0
  -20.2478   -3.3336  -35.3502 C   0  0  0  0  0  0  0  0  0  0  0  0
  -18.2503   -7.1561  -36.3893 C   0  0  0  0  0  0  0  0  0  0  0  0
  -21.2101   -3.3790  -34.1505 C   0  0  0  0  0  0  0  0  0  0  0  0
  -18.7885   -6.8836  -34.9736 C   0  0  0  0  0  0  0  0  0  0  0  0
  -19.4624   -5.5371  -30.6540 C   0  0  0  0  0  0  0  0  0  0  0  0
  -22.7643   -3.7731  -31.2541 C   0  0  0  0  0  0  0  0  0  0  0  0
  -20.9387   -5.1508  -30.6041 C   0  0  2  0  0  0  0  0  0  0  0  0
  -22.8158   -3.8503  -29.7121 C   0  0  2  0  0  0  0  0  0  0  0  0
  -19.8038   -4.7343  -35.7601 C   0  0  1  0  0  0  0  0  0  0  0  0
  -19.4819   -5.0348  -33.1870 C   0  0  1  0  0  0  0  0  0  0  0  0
  -19.1705   -4.8846  -37.1701 C   0  0  1  0  0  0  0  0  0  0  0  0
  -18.9940   -6.3924  -37.4878 C   0  0  2  0  0  0  0  0  0  0  0  0
  -19.0938   -6.0430  -32.0636 C   0  0  2  0  0  0  0  0  0  0  0  0
  -18.9117   -5.3742  -34.6409 C   0  0  1  0  0  0  0  0  0  0  0  0
  -20.9866   -4.5397  -33.1179 C   0  0  1  0  0  0  0  0  0  0  0  0
  -21.2766   -4.0271  -31.6241 C   0  0  1  0  0  0  0  0  0  0  0  0
  -15.7218   -6.1397  -25.2018 C   0  0  0  0  0  0  0  0  0  0  0  0
  -17.1012   -4.0267  -25.0988 C   0  0  0  0  0  0  0  0  0  0  0  0
  -23.7943   -0.5725  -28.3831 C   0  0  0  0  0  0  0  0  0  0  0  0
  -19.9948   -4.1991  -38.2678 C   0  0  0  0  0  0  0  0  0  0  0  0
  -17.4625   -4.7798  -34.6537 C   0  0  0  0  0  0  0  0  0  0  0  0
  -21.9707   -5.6920  -33.4879 C   0  0  0  0  0  0  0  0  0  0  0  0
  -20.4831   -2.7121  -31.2912 C   0  0  0  0  0  0  0  0  0  0  0  0
  -27.6281   -5.0231  -22.2659 C   0  0  0  0  0  0  0  0  0  0  0  0
  -19.4863   -5.5035  -26.2670 C   0  0  0  0  0  0  0  0  0  0  0  0
  -19.8172   -5.4891  -27.7660 C   0  0  0  0  0  0  0  0  0  0  0  0
  -22.8557   -5.1464  -26.4442 N   0  0  0  0  0  0  0  0  0  0  0  0
  -21.6385   -3.1381  -26.5235 O   0  0  0  0  0  0  0  0  0  0  0  0
  -25.0841   -2.4362  -29.1953 O   0  0  0  0  0  0  0  0  0  0  0  0
  -20.2637   -7.0280  -37.6555 O   0  0  0  0  0  0  0  0  0  0  0  0
  -19.7260   -7.3027  -32.2719 O   0  0  0  0  0  0  0  0  0  0  0  0
  -26.3946   -4.3070  -22.2304 O   0  0  0  0  0  0  0  0  0  0  0  0
  -22.7764   -2.5394  -29.1677 O   0  0  0  0  0  0  0  0  0  0  0  0
  -25.2525   -6.2891  -26.1426 H   0  0  0  0  0  0  0  0  0  0  0  0
  -22.4678   -3.5272  -24.3539 H   0  0  0  0  0  0  0  0  0  0  0  0
  -26.8181   -5.9153  -24.2747 H   0  0  0  0  0  0  0  0  0  0  0  0
  -24.0374   -3.1574  -22.4888 H   0  0  0  0  0  0  0  0  0  0  0  0
  -18.0486   -7.1504  -26.2422 H   0  0  0  0  0  0  0  0  0  0  0  0
  -20.7688   -2.8192  -36.1639 H   0  0  0  0  0  0  0  0  0  0  0  0
  -19.3813   -2.7092  -35.1066 H   0  0  0  0  0  0  0  0  0  0  0  0
  -17.1838   -6.9103  -36.4338 H   0  0  0  0  0  0  0  0  0  0  0  0
  -18.3241   -8.2348  -36.5774 H   0  0  0  0  0  0  0  0  0  0  0  0
  -21.1597   -2.3936  -33.6825 H   0  0  0  0  0  0  0  0  0  0  0  0
  -22.2360   -3.4343  -34.5388 H   0  0  0  0  0  0  0  0  0  0  0  0
  -19.7671   -7.3678  -34.8788 H   0  0  0  0  0  0  0  0  0  0  0  0
  -18.1167   -7.3831  -34.2659 H   0  0  0  0  0  0  0  0  0  0  0  0
  -18.8244   -4.6890  -30.3819 H   0  0  0  0  0  0  0  0  0  0  0  0
  -19.2697   -6.3311  -29.9222 H   0  0  0  0  0  0  0  0  0  0  0  0
  -23.4112   -4.5625  -31.6498 H   0  0  0  0  0  0  0  0  0  0  0  0
  -23.1296   -2.8165  -31.6426 H   0  0  0  0  0  0  0  0  0  0  0  0
  -21.5089   -6.0592  -30.8355 H   0  0  0  0  0  0  0  0  0  0  0  0
  -23.7354   -4.3437  -29.3845 H   0  0  0  0  0  0  0  0  0  0  0  0
  -20.7324   -5.3078  -35.8377 H   0  0  0  0  0  0  0  0  0  0  0  0
  -18.9137   -4.1395  -32.9098 H   0  0  0  0  0  0  0  0  0  0  0  0
  -18.1848   -4.4076  -37.1870 H   0  0  0  0  0  0  0  0  0  0  0  0
  -18.4474   -6.5143  -38.4307 H   0  0  0  0  0  0  0  0  0  0  0  0
  -18.0124   -6.2190  -32.0898 H   0  0  0  0  0  0  0  0  0  0  0  0
  -15.0800   -6.0512  -26.0846 H   0  0  0  0  0  0  0  0  0  0  0  0
  -15.1784   -5.7101  -24.3586 H   0  0  0  0  0  0  0  0  0  0  0  0
  -15.8635   -7.2042  -24.9867 H   0  0  0  0  0  0  0  0  0  0  0  0
  -17.4265   -3.9074  -24.0600 H   0  0  0  0  0  0  0  0  0  0  0  0
  -16.1278   -3.5352  -25.1997 H   0  0  0  0  0  0  0  0  0  0  0  0
  -17.8079   -3.4989  -25.7477 H   0  0  0  0  0  0  0  0  0  0  0  0
  -23.7746   -0.6271  -27.2919 H   0  0  0  0  0  0  0  0  0  0  0  0
  -24.5954    0.0895  -28.7216 H   0  0  0  0  0  0  0  0  0  0  0  0
  -22.8390   -0.1672  -28.7292 H   0  0  0  0  0  0  0  0  0  0  0  0
  -20.9898   -4.6341  -38.2983 H   0  0  0  0  0  0  0  0  0  0  0  0
  -19.5077   -4.3414  -39.2283 H   0  0  0  0  0  0  0  0  0  0  0  0
  -20.0703   -3.1367  -38.0536 H   0  0  0  0  0  0  0  0  0  0  0  0
  -17.5340   -3.7309  -34.4239 H   0  0  0  0  0  0  0  0  0  0  0  0
  -17.0519   -4.9326  -35.6365 H   0  0  0  0  0  0  0  0  0  0  0  0
  -16.8859   -5.3001  -33.9087 H   0  0  0  0  0  0  0  0  0  0  0  0
  -21.8265   -6.4964  -32.7847 H   0  0  0  0  0  0  0  0  0  0  0  0
  -21.7460   -6.0173  -34.4909 H   0  0  0  0  0  0  0  0  0  0  0  0
  -22.9764   -5.3080  -33.4274 H   0  0  0  0  0  0  0  0  0  0  0  0
  -19.4527   -2.8814  -31.5450 H   0  0  0  0  0  0  0  0  0  0  0  0
  -20.5993   -2.5198  -30.2404 H   0  0  0  0  0  0  0  0  0  0  0  0
  -20.9051   -1.9197  -31.8818 H   0  0  0  0  0  0  0  0  0  0  0  0
  -28.2240   -4.7677  -21.3862 H   0  0  0  0  0  0  0  0  0  0  0  0
  -27.4265   -6.0972  -22.2834 H   0  0  0  0  0  0  0  0  0  0  0  0
  -28.1762   -4.7425  -23.1684 H   0  0  0  0  0  0  0  0  0  0  0  0
  -20.2873   -5.9993  -25.7120 H   0  0  0  0  0  0  0  0  0  0  0  0
  -19.4755   -4.4670  -25.9065 H   0  0  0  0  0  0  0  0  0  0  0  0
  -19.8090   -6.5184  -28.1484 H   0  0  0  0  0  0  0  0  0  0  0  0
  -19.0132   -4.9674  -28.3004 H   0  0  0  0  0  0  0  0  0  0  0  0
  -22.9052   -6.0711  -26.8670 H   0  0  0  0  0  0  0  0  0  0  0  0
  -20.0776   -7.9436  -37.9102 H   0  0  0  0  0  0  0  0  0  0  0  0
  -19.3897   -7.8981  -31.5841 H   0  0  0  0  0  0  0  0  0  0  0  0
  1  3  1  0  0  0  0
  1  5  2  0  0  0  0
  2  4  2  0  0  0  0
  2  5  1  0  0  0  0
  3  6  2  0  0  0  0
  4  6  1  0  0  0  0
  5 39  1  0  0  0  0
  6 44  1  0  0  0  0
  7  9  2  0  0  0  0
  7 19  1  0  0  0  0
  7 20  1  0  0  0  0
  8 10  2  0  0  0  0
  8 37  1  0  0  0  0
  9 11  1  0  0  0  0
  9 38  1  0  0  0  0
 10 29  1  0  0  0  0
 10 30  1  0  0  0  0
 11 39  1  0  0  0  0
 11 40  2  0  0  0  0
 12 31  1  0  0  0  0
 12 41  2  0  0  0  0
 12 45  1  0  0  0  0
 13 15  1  0  0  0  0
 13 21  1  0  0  0  0
 14 16  1  0  0  0  0
 14 24  1  0  0  0  0
 15 27  1  0  0  0  0
 16 26  1  0  0  0  0
 17 19  1  0  0  0  0
 17 25  1  0  0  0  0
 18 20  1  0  0  0  0
 18 28  1  0  0  0  0
 19 28  1  0  0  0  0
 20 45  1  0  0  0  0
 21 23  1  0  0  0  0
 21 26  1  0  0  0  0
 22 25  1  0  0  0  0
 22 26  1  0  0  0  0
 22 27  1  0  0  0  0
 23 24  1  0  0  0  0
 23 32  1  0  0  0  0
 24 42  1  0  0  0  0
 25 43  1  0  0  0  0
 26 33  1  0  0  0  0
 27 28  1  0  0  0  0
 27 34  1  0  0  0  0
 28 35  1  0  0  0  0
 36 44  1  0  0  0  0
 37 38  1  0  0  0  0
  1 46  1  0  0  0  0
  2 47  1  0  0  0  0
  3 48  1  0  0  0  0
  4 49  1  0  0  0  0
  8 50  1  0  0  0  0
 13 51  1  0  0  0  0
 13 52  1  0  0  0  0
 14 53  1  0  0  0  0
 14 54  1  0  0  0  0
 15 55  1  0  0  0  0
 15 56  1  0  0  0  0
 16 57  1  0  0  0  0
 16 58  1  0  0  0  0
 17 59  1  0  0  0  0
 17 60  1  0  0  0  0
 18 61  1  0  0  0  0
 18 62  1  0  0  0  0
 19 63  1  0  0  0  0
 20 64  1  0  0  0  0
 21 65  1  0  0  0  0
 22 66  1  0  0  0  0
 23 67  1  0  0  0  0
 24 68  1  0  0  0  0
 25 69  1  0  0  0  0
 29 70  1  0  0  0  0
 29 71  1  0  0  0  0
 29 72  1  0  0  0  0
 30 73  1  0  0  0  0
 30 74  1  0  0  0  0
 30 75  1  0  0  0  0
 31 76  1  0  0  0  0
 31 77  1  0  0  0  0
 31 78  1  0  0  0  0
 32 79  1  0  0  0  0
 32 80  1  0  0  0  0
 32 81  1  0  0  0  0
 33 82  1  0  0  0  0
 33 83  1  0  0  0  0
 33 84  1  0  0  0  0
 34 85  1  0  0  0  0
 34 86  1  0  0  0  0
 34 87  1  0  0  0  0
 35 88  1  0  0  0  0
 35 89  1  0  0  0  0
 35 90  1  0  0  0  0
 36 91  1  0  0  0  0
 36 92  1  0  0  0  0
 36 93  1  0  0  0  0
 37 94  1  0  0  0  0
 37 95  1  0  0  0  0
 38 96  1  0  0  0  0
 38 97  1  0  0  0  0
 39 98  1  0  0  0  0
 42 99  1  0  0  0  0
 43100  1  0  0  0  0
M  END
> <SMILES>
COc1ccc(cc1)NC(=O)/C(=C/1\[C@H](C[C@@]2(C)[C@H]1C[C@@H](O)[C@H]1[C@@]3(C)CC[C@@H](O)[C@@H](C)[C@@H]3CC[C@@]12C)OC(=O)C)CCC=C(C)C

> <FORMATTED_ID>
H3D-005454

> <MOLFORMULA>
C38H55NO6

> <Exact Mass>
621.4

> <XLogP>
6.89

> <TPSA_NOPS>
105.1

> <s_m_source_file>
ligprep_h3d.sdf

> <i_m_source_file_index>
2365

> <i_lp_mmshare_version>
55123

> <i_f3d_flags>
0

> <s_epik_input>
W0NIM11PYzFbY0hdW2NIXWMoW2NIXVtjSF0xKVtOSF1DKD1PKS9DKFtDSDJdW0NIMl1bQ0hdPUMoW0NIM10pW0NIM10pPUMoXFtDQEhdKFtDSDJdMilPQyg9TylbQ0gzXSlbQ0BASF0oW0NAXTIzW0NIM10pW0NIMl1bQ0BASF0oW09IXSlbQ0BIXTRbQ0BdNShbQ0gzXSlbQ0BIXShbQ0BIXShbQ0gzXSlbQ0BIXShbT0hdKVtDSDJdW0NIMl01KVtDSDJdW0NIMl1bQ0BdMzRbQ0gzXQ==

> <s_epik_cmdline>
J2VwaWtfcHl0aG9uJywgJy1waHQnLCAnMC41JywgJy1waCcsICc3LjUnLCAnLXRuJywgJzgnLCAnLW1hJywgJzUwMCcsICctaW1hZScsICc8aW5maWxlLm1hZT4nLCAnLW9tYWUnLCAnPG91dGZpbGUubWFlPic=

> <r_lp_tautomer_probability>
1

> <r_epik_Ionization_Penalty>
0.00271355

> <r_epik_Ionization_Penalty_Charging>
0

> <r_epik_Ionization_Penalty_Neutral>
0.00271355

> <r_epik_State_Penalty>
-0

> <r_epik_Charging_Adjusted_Penalty>
0

> <i_epik_Tot_Q>
0

> <i_epik_Tot_abs_Q>
0

> <s_epik_Chemistry_Notes>
This compound has an ester and may undergo hydrolysis at high or low pH.

> <s_lp_Force_Field>
S-OPLS

> <r_lp_Energy>
91.3906

> <b_lp_Chiralities_Consistent>
1

> <s_lp_Variant>
ligprep_h3d.sdf:2365-1

> <ROCS_ShapeQuery>
_7L13

> <ROCS_TanimotoCombo>
0.725 

> <ROCS_ShapeTanimoto>
0.597 

> <ROCS_ColorTanimoto>
0.129 

> <ROCS_RefTversky>
0.812 

> <ROCS_RefColorTversky>
0.294 

> <ROCS_RefTverskyCombo>
1.106 

> <ROCS_FitTversky>
0.692 

> <ROCS_FitColorTversky>
0.186 

> <ROCS_FitTverskyCombo>
0.878 

> <ROCS_ColorScore>
-2.738

> <ROCS_Overlap>
1360.689

> <ROCS_Rank>
102                 

$$$$
ligprep_h3d.sdf:973_1528
  -OEChem-08212117123D

 60 65  0     1  0  0  0  0  0999 V2000
  -20.8265   -5.0334  -29.4990 C   0  0  0  0  0  0  0  0  0  0  0  0
  -21.6530   -4.3410  -30.3861 C   0  0  0  0  0  0  0  0  0  0  0  0
  -20.9811   -4.8119  -28.1087 C   0  0  0  0  0  0  0  0  0  0  0  0
  -21.9685   -3.9465  -27.5820 C   0  0  0  0  0  0  0  0  0  0  0  0
  -22.5892   -3.4734  -29.8684 C   0  0  0  0  0  0  0  0  0  0  0  0
  -22.7787   -3.2439  -28.5054 C   0  0  0  0  0  0  0  0  0  0  0  0
  -21.8378   -4.2427  -31.7777 C   0  0  0  0  0  0  0  0  0  0  0  0
  -19.6601   -7.2232  -35.9167 C   0  0  0  0  0  0  0  0  0  0  0  0
  -18.9458   -3.5745  -26.1556 C   0  0  0  0  0  0  0  0  0  0  0  0
  -19.1041   -5.8693  -24.9915 C   0  0  0  0  0  0  0  0  0  0  0  0
  -16.9103   -4.9079  -25.6557 C   0  0  0  0  0  0  0  0  0  0  0  0
  -20.0592   -5.5596  -27.1827 C   0  0  0  0  0  0  0  0  0  0  0  0
  -20.2539   -6.1833  -34.9977 C   0  0  0  0  0  0  0  0  0  0  0  0
  -19.6540   -8.1401  -33.7491 C   0  0  0  0  0  0  0  0  0  0  0  0
  -23.1574   -2.9111  -25.6591 C   0  0  0  0  0  0  0  0  0  0  0  0
  -20.6589   -6.9977  -33.7647 C   0  0  1  0  0  0  0  0  0  0  0  0
  -21.1882   -4.4268  -25.2273 C   0  0  2  0  0  0  0  0  0  0  0  0
  -23.5212   -3.2635  -24.2140 C   0  0  1  0  0  0  0  0  0  0  0  0
  -21.1227   -3.4893  -23.9866 C   0  0  2  0  0  0  0  0  0  0  0  0
  -19.8113   -4.8083  -25.8509 C   0  0  0  0  0  0  0  0  0  0  0  0
  -24.4064   -4.5045  -24.1161 C   0  0  0  0  0  0  0  0  0  0  0  0
  -20.1464   -3.8949  -22.8889 C   0  0  0  0  0  0  0  0  0  0  0  0
  -20.6571   -6.1825  -32.4838 C   0  0  0  0  0  0  0  0  0  0  0  0
  -22.8087   -3.3827  -32.1005 N   0  0  0  0  0  0  0  0  0  0  0  0
  -17.5783   -3.7997  -26.1563 N   0  0  0  0  0  0  0  0  0  0  0  0
  -17.7203   -5.8716  -25.0720 N   0  0  0  0  0  0  0  0  0  0  0  0
  -19.3432   -8.3304  -35.1386 N   0  0  0  0  0  0  0  0  0  0  0  0
  -22.1140   -3.7908  -26.2014 N   0  0  3  0  0  0  0  0  0  0  0  0
  -19.4660   -7.0800  -37.1139 O   0  0  0  0  0  0  0  0  0  0  0  0
  -19.4165   -2.4741  -26.4437 O   0  0  0  0  0  0  0  0  0  0  0  0
  -19.7153   -6.7200  -24.3435 O   0  0  0  0  0  0  0  0  0  0  0  0
  -15.6829   -5.0101  -25.6901 O   0  0  0  0  0  0  0  0  0  0  0  0
  -23.2815   -2.8950  -30.8877 O   0  0  0  0  0  0  0  0  0  0  0  0
  -22.4039   -3.4337  -23.3471 O   0  0  0  0  0  0  0  0  0  0  0  0
  -21.1827   -4.8745  -32.7607 O   0  0  0  0  0  0  0  0  0  0  0  0
  -23.6508   -2.2941  -28.1477 F   0  0  0  0  0  0  0  0  0  0  0  0
  -20.0722   -5.7212  -29.8707 H   0  0  0  0  0  0  0  0  0  0  0  0
  -20.5087   -6.5448  -26.9967 H   0  0  0  0  0  0  0  0  0  0  0  0
  -19.1013   -5.7419  -27.6889 H   0  0  0  0  0  0  0  0  0  0  0  0
  -19.5274   -5.4001  -34.7742 H   0  0  0  0  0  0  0  0  0  0  0  0
  -21.1301   -5.7522  -35.4902 H   0  0  0  0  0  0  0  0  0  0  0  0
  -18.7415   -7.9257  -33.1891 H   0  0  0  0  0  0  0  0  0  0  0  0
  -20.1028   -9.0669  -33.3809 H   0  0  0  0  0  0  0  0  0  0  0  0
  -24.0529   -3.0265  -26.3046 H   0  0  0  0  0  0  0  0  0  0  0  0
  -22.9355   -1.8332  -25.6903 H   0  0  0  0  0  0  0  0  0  0  0  0
  -21.6893   -7.3996  -33.9046 H   0  0  0  0  0  0  0  0  0  0  0  0
  -21.6946   -5.3527  -24.9132 H   0  0  0  0  0  0  0  0  0  0  0  0
  -24.1490   -2.4078  -23.7836 H   0  0  0  0  0  0  0  0  0  0  0  0
  -20.8591   -2.4589  -24.2881 H   0  0  0  0  0  0  0  0  0  0  0  0
  -23.8767   -5.3723  -24.5094 H   0  0  0  0  0  0  0  0  0  0  0  0
  -25.3201   -4.3570  -24.6918 H   0  0  0  0  0  0  0  0  0  0  0  0
  -24.6703   -4.6930  -23.0754 H   0  0  0  0  0  0  0  0  0  0  0  0
  -20.3631   -4.9091  -22.5534 H   0  0  0  0  0  0  0  0  0  0  0  0
  -20.2353   -3.2154  -22.0413 H   0  0  0  0  0  0  0  0  0  0  0  0
  -19.1245   -3.8579  -23.2666 H   0  0  0  0  0  0  0  0  0  0  0  0
  -19.6392   -6.0786  -32.0965 H   0  0  0  0  0  0  0  0  0  0  0  0
  -21.2827   -6.6602  -31.7238 H   0  0  0  0  0  0  0  0  0  0  0  0
  -17.0013   -3.0732  -26.5689 H   0  0  0  0  0  0  0  0  0  0  0  0
  -17.2429   -6.6379  -24.6064 H   0  0  0  0  0  0  0  0  0  0  0  0
  -18.9834   -9.1981  -35.5236 H   0  0  0  0  0  0  0  0  0  0  0  0
  1  2  2  0  0  0  0
  1  3  1  0  0  0  0
  2  5  1  0  0  0  0
  2  7  1  0  0  0  0
  3  4  2  0  0  0  0
  3 12  1  0  0  0  0
  4  6  1  0  0  0  0
  4 28  1  0  0  0  0
  5  6  2  0  0  0  0
  5 33  1  0  0  0  0
  6 36  1  0  0  0  0
  7 24  2  0  0  0  0
  7 35  1  0  0  0  0
  8 13  1  0  0  0  0
  8 27  1  0  0  0  0
  8 29  2  0  0  0  0
  9 20  1  0  0  0  0
  9 25  1  0  0  0  0
  9 30  2  0  0  0  0
 10 20  1  0  0  0  0
 10 26  1  0  0  0  0
 10 31  2  0  0  0  0
 11 25  1  0  0  0  0
 11 26  1  0  0  0  0
 11 32  2  0  0  0  0
 12 20  1  0  0  0  0
 13 16  1  0  0  0  0
 14 16  1  0  0  0  0
 14 27  1  0  0  0  0
 15 18  1  0  0  0  0
 15 28  1  0  0  0  0
 16 23  1  0  0  0  0
 17 19  1  0  0  0  0
 17 20  1  0  0  0  0
 17 28  1  0  0  0  0
 18 21  1  0  0  0  0
 18 34  1  0  0  0  0
 19 22  1  0  0  0  0
 19 34  1  0  0  0  0
 23 35  1  0  0  0  0
 24 33  1  0  0  0  0
  1 37  1  0  0  0  0
 12 38  1  0  0  0  0
 12 39  1  0  0  0  0
 13 40  1  0  0  0  0
 13 41  1  0  0  0  0
 14 42  1  0  0  0  0
 14 43  1  0  0  0  0
 15 44  1  0  0  0  0
 15 45  1  0  0  0  0
 16 46  1  0  0  0  0
 17 47  1  0  0  0  0
 18 48  1  0  0  0  0
 19 49  1  0  0  0  0
 21 50  1  0  0  0  0
 21 51  1  0  0  0  0
 21 52  1  0  0  0  0
 22 53  1  0  0  0  0
 22 54  1  0  0  0  0
 22 55  1  0  0  0  0
 23 56  1  0  0  0  0
 23 57  1  0  0  0  0
 25 58  1  0  0  0  0
 26 59  1  0  0  0  0
 27 60  1  0  0  0  0
M  END
> <SMILES>
C[C@@H]1CN2[C@H]([C@H](C)O1)C1(Cc3cc4c(noc4c(c32)F)OC[C@@H]2CNC(=O)C2)C(=O)NC(=O)NC1=O

> <FORMATTED_ID>
H3D-006041

> <MOLFORMULA>
C23H24FN5O7

> <Exact Mass>
501.17

> <XLogP>
0.03

> <TPSA_NOPS>
152.4

> <s_m_source_file>
ligprep_h3d.sdf

> <i_m_source_file_index>
973

> <i_lp_mmshare_version>
55123

> <i_f3d_flags>
0

> <s_epik_input>
Tz1DMVtOSF1DKD1PKVtOSF1DKD1PKUMxMltDQEBIXTNOKFtDSDJdW0NAQEhdKFtDSDNdKU9bQ0BIXTNbQ0gzXSljNGMoW0NIMl0yKVtjSF1jNWMoYzRGKW9uYzVPW0NIMl1bQ0BASF02W0NIMl1bTkhdQyg9TylbQ0gyXTY=

> <s_epik_cmdline>
J2VwaWtfcHl0aG9uJywgJy1waHQnLCAnMC41JywgJy1waCcsICc3LjUnLCAnLXRuJywgJzgnLCAnLW1hJywgJzUwMCcsICctaW1hZScsICc8aW5maWxlLm1hZT4nLCAnLW9tYWUnLCAnPG91dGZpbGUubWFlPic=

> <r_lp_tautomer_probability>
1

> <r_epik_Ionization_Penalty>
0.369127

> <r_epik_Ionization_Penalty_Charging>
0

> <r_epik_Ionization_Penalty_Neutral>
0.369127

> <r_epik_State_Penalty>
0.366447

> <r_epik_Charging_Adjusted_Penalty>
0.366447

> <i_epik_Tot_Q>
0

> <i_epik_Tot_abs_Q>
0

> <s_lp_Force_Field>
S-OPLS

> <r_lp_Energy>
41.9752

> <b_lp_Chiralities_Consistent>
1

> <s_lp_Variant>
ligprep_h3d.sdf:973-1

> <ROCS_ShapeQuery>
_7L13

> <ROCS_TanimotoCombo>
0.793 

> <ROCS_ShapeTanimoto>
0.670 

> <ROCS_ColorTanimoto>
0.122 

> <ROCS_RefTversky>
0.811 

> <ROCS_RefColorTversky>
0.292 

> <ROCS_RefTverskyCombo>
1.104 

> <ROCS_FitTversky>
0.794 

> <ROCS_FitColorTversky>
0.174 

> <ROCS_FitTverskyCombo>
0.968 

> <ROCS_ColorScore>
-2.732

> <ROCS_Overlap>
1349.106

> <ROCS_Rank>
103                 

$$$$
ligprep_h3d.sdf:2999_1575
  -OEChem-08212117123D

 64 69  0     0  0  0  0  0  0999 V2000
  -24.1109   -4.2994  -23.2807 C   0  0  0  0  0  0  0  0  0  0  0  0
  -25.2375   -5.0110  -23.7454 C   0  0  0  0  0  0  0  0  0  0  0  0
  -21.1255   -6.7980  -34.7104 C   0  0  0  0  0  0  0  0  0  0  0  0
  -20.3888   -5.1054  -26.2760 C   0  0  0  0  0  0  0  0  0  0  0  0
  -23.1595   -3.7636  -24.1605 C   0  0  0  0  0  0  0  0  0  0  0  0
  -25.4676   -5.2216  -25.1125 C   0  0  0  0  0  0  0  0  0  0  0  0
  -20.6867   -7.8517  -35.5149 C   0  0  0  0  0  0  0  0  0  0  0  0
  -19.2871   -5.8831  -25.9372 C   0  0  0  0  0  0  0  0  0  0  0  0
  -19.8662   -3.4913  -33.5580 C   0  0  0  0  0  0  0  0  0  0  0  0
  -18.6195   -6.6769  -35.9491 C   0  0  0  0  0  0  0  0  0  0  0  0
  -19.0593   -3.1640  -25.9297 C   0  0  0  0  0  0  0  0  0  0  0  0
  -18.6386   -3.4950  -34.1992 C   0  0  0  0  0  0  0  0  0  0  0  0
  -20.3154   -5.6684  -34.5146 C   0  0  0  0  0  0  0  0  0  0  0  0
  -20.2810   -3.7192  -26.2746 C   0  0  0  0  0  0  0  0  0  0  0  0
  -23.4012   -3.9803  -25.5119 C   0  0  0  0  0  0  0  0  0  0  0  0
  -24.5163   -4.6848  -25.9719 C   0  0  0  0  0  0  0  0  0  0  0  0
  -19.0523   -5.6180  -35.1449 C   0  0  0  0  0  0  0  0  0  0  0  0
  -20.7095   -4.5854  -33.7172 C   0  0  0  0  0  0  0  0  0  0  0  0
  -19.4376   -7.7910  -36.1321 C   0  0  0  0  0  0  0  0  0  0  0  0
  -18.1098   -5.2311  -25.6077 C   0  0  0  0  0  0  0  0  0  0  0  0
  -23.3199   -4.0436  -27.7331 C   0  0  0  0  0  0  0  0  0  0  0  0
  -21.2271   -4.4137  -30.7348 C   0  0  0  0  0  0  0  0  0  0  0  0
  -23.6201   -4.0256  -31.3833 C   0  0  0  0  0  0  0  0  0  0  0  0
  -21.4950   -3.7476  -29.3847 C   0  0  0  0  0  0  0  0  0  0  0  0
  -23.8568   -3.3460  -30.0370 C   0  0  0  0  0  0  0  0  0  0  0  0
  -22.1615   -3.8833  -31.8232 C   0  0  0  0  0  0  0  0  0  0  0  0
  -21.4548   -2.8496  -26.6360 C   0  0  0  0  0  0  0  0  0  0  0  0
  -16.9073   -6.0343  -25.2394 C   0  0  0  0  0  0  0  0  0  0  0  0
  -17.9670   -3.8868  -25.5950 N   0  0  0  0  0  0  0  0  0  0  0  0
  -22.6940   -3.6055  -26.6359 N   0  0  0  0  0  0  0  0  0  0  0  0
  -18.2729   -4.5359  -34.9590 N   0  3  0  0  0  0  0  0  0  0  0  0
  -24.4212   -4.6969  -27.3483 N   0  3  0  0  0  0  0  0  0  0  0  0
  -22.9147   -3.8625  -29.0365 N   0  0  0  0  0  0  0  0  0  0  0  0
  -21.9312   -4.5681  -33.0712 N   0  0  0  0  0  0  0  0  0  0  0  0
  -17.1198   -7.3830  -25.2723 F   0  0  0  0  0  0  0  0  0  0  0  0
  -15.8366   -5.8218  -26.0598 F   0  0  0  0  0  0  0  0  0  0  0  0
  -16.4624   -5.7639  -23.9780 F   0  0  0  0  0  0  0  0  0  0  0  0
  -18.9053   -9.0947  -37.1220 Cl  0  0  0  0  0  0  0  0  0  0  0  0
  -23.9771   -4.1631  -22.2097 H   0  0  0  0  0  0  0  0  0  0  0  0
  -25.9474   -5.4066  -23.0223 H   0  0  0  0  0  0  0  0  0  0  0  0
  -22.1050   -6.8816  -34.2458 H   0  0  0  0  0  0  0  0  0  0  0  0
  -21.3263   -5.5872  -26.5395 H   0  0  0  0  0  0  0  0  0  0  0  0
  -22.2929   -3.2167  -23.8114 H   0  0  0  0  0  0  0  0  0  0  0  0
  -26.3271   -5.7661  -25.4822 H   0  0  0  0  0  0  0  0  0  0  0  0
  -21.3322   -8.7158  -35.6520 H   0  0  0  0  0  0  0  0  0  0  0  0
  -19.3580   -6.9655  -25.9344 H   0  0  0  0  0  0  0  0  0  0  0  0
  -20.1532   -2.6427  -32.9444 H   0  0  0  0  0  0  0  0  0  0  0  0
  -17.6448   -6.6265  -36.4291 H   0  0  0  0  0  0  0  0  0  0  0  0
  -18.9153   -2.0881  -25.9109 H   0  0  0  0  0  0  0  0  0  0  0  0
  -17.9234   -2.6868  -34.1300 H   0  0  0  0  0  0  0  0  0  0  0  0
  -20.1951   -4.1984  -31.0299 H   0  0  0  0  0  0  0  0  0  0  0  0
  -21.3124   -5.4994  -30.6414 H   0  0  0  0  0  0  0  0  0  0  0  0
  -23.9112   -5.0745  -31.3343 H   0  0  0  0  0  0  0  0  0  0  0  0
  -24.2537   -3.5455  -32.1319 H   0  0  0  0  0  0  0  0  0  0  0  0
  -20.9054   -4.2124  -28.5874 H   0  0  0  0  0  0  0  0  0  0  0  0
  -21.2187   -2.6885  -29.4301 H   0  0  0  0  0  0  0  0  0  0  0  0
  -23.7218   -2.2626  -30.1338 H   0  0  0  0  0  0  0  0  0  0  0  0
  -24.8753   -3.5230  -29.6726 H   0  0  0  0  0  0  0  0  0  0  0  0
  -21.9438   -2.8116  -31.9823 H   0  0  0  0  0  0  0  0  0  0  0  0
  -21.5615   -2.0156  -25.9316 H   0  0  0  0  0  0  0  0  0  0  0  0
  -21.3260   -2.4030  -27.6294 H   0  0  0  0  0  0  0  0  0  0  0  0
  -17.3605   -4.4995  -35.4142 H   0  0  0  0  0  0  0  0  0  0  0  0
  -25.0883   -5.1371  -27.9764 H   0  0  0  0  0  0  0  0  0  0  0  0
  -22.7092   -5.0601  -33.4887 H   0  0  0  0  0  0  0  0  0  0  0  0
  1  2  2  0  0  0  0
  1  5  1  0  0  0  0
  2  6  1  0  0  0  0
  3  7  1  0  0  0  0
  3 13  2  0  0  0  0
  4  8  1  0  0  0  0
  4 14  2  0  0  0  0
  5 15  2  0  0  0  0
  6 16  2  0  0  0  0
  7 19  2  0  0  0  0
  8 20  2  0  0  0  0
  9 12  1  0  0  0  0
  9 18  2  0  0  0  0
 10 17  2  0  0  0  0
 10 19  1  0  0  0  0
 11 14  1  0  0  0  0
 11 29  2  0  0  0  0
 12 31  2  0  0  0  0
 13 17  1  0  0  0  0
 13 18  1  0  0  0  0
 14 27  1  0  0  0  0
 15 16  1  0  0  0  0
 15 30  1  0  0  0  0
 16 32  1  0  0  0  0
 17 31  1  0  0  0  0
 18 34  1  0  0  0  0
 19 38  1  0  0  0  0
 20 28  1  0  0  0  0
 20 29  1  0  0  0  0
 21 30  1  0  0  0  0
 21 32  2  0  0  0  0
 21 33  1  0  0  0  0
 22 24  1  0  0  0  0
 22 26  1  0  0  0  0
 23 25  1  0  0  0  0
 23 26  1  0  0  0  0
 24 33  1  0  0  0  0
 25 33  1  0  0  0  0
 26 34  1  0  0  0  0
 27 30  1  0  0  0  0
 28 35  1  0  0  0  0
 28 36  1  0  0  0  0
 28 37  1  0  0  0  0
  1 39  1  0  0  0  0
  2 40  1  0  0  0  0
  3 41  1  0  0  0  0
  4 42  1  0  0  0  0
  5 43  1  0  0  0  0
  6 44  1  0  0  0  0
  7 45  1  0  0  0  0
  8 46  1  0  0  0  0
  9 47  1  0  0  0  0
 10 48  1  0  0  0  0
 11 49  1  0  0  0  0
 12 50  1  0  0  0  0
 22 51  1  0  0  0  0
 22 52  1  0  0  0  0
 23 53  1  0  0  0  0
 23 54  1  0  0  0  0
 24 55  1  0  0  0  0
 24 56  1  0  0  0  0
 25 57  1  0  0  0  0
 25 58  1  0  0  0  0
 26 59  1  0  0  0  0
 27 60  1  0  0  0  0
 27 61  1  0  0  0  0
 31 62  1  0  0  0  0
 32 63  1  0  0  0  0
 34 64  1  0  0  0  0
M  CHG  2  31   1  32   1
M  END
> <SMILES>
FC(F)(F)c1ccc(cn1)Cn1c(nc2ccccc12)N1CCC(CC1)Nc1ccnc2cc(ccc12)Cl

> <FORMATTED_ID>
H3D-014800

> <MOLFORMULA>
C28H24ClF3N6

> <Exact Mass>
536.17

> <XLogP>
6.92

> <TPSA_NOPS>
58.9

> <s_m_source_file>
ligprep_h3d.sdf

> <i_m_source_file_index>
2999

> <i_lp_mmshare_version>
55123

> <i_f3d_flags>
0

> <s_epik_input>
RkMoRikoRiljMVtjSF1bY0hdYyhbY0hdbjEpW0NIMl1uKGMoYzIzKVtjSF1bY0hdW2NIXVtjSF0zKWMobjIpTjRbQ0gyXVtDSDJdW0NIXShbQ0gyXVtDSDJdNClbTkhdYyhbY0hdW2NIXW41KWMoYzU2KVtjSF1bY0hdYyhDbClbY0hdNg==

> <s_epik_cmdline>
J2VwaWtfcHl0aG9uJywgJy1waHQnLCAnMC41JywgJy1waCcsICc3LjUnLCAnLXRuJywgJzgnLCAnLW1hJywgJzUwMCcsICctaW1hZScsICc8aW5maWxlLm1hZT4nLCAnLW9tYWUnLCAnPG91dGZpbGUubWFlPic=

> <r_epik_Ionization_Penalty>
0.18404

> <r_epik_Ionization_Penalty_Charging>
0.184031

> <r_epik_Ionization_Penalty_Neutral>
8.15849e-06

> <r_epik_State_Penalty>
0.165459

> <r_epik_Charging_Adjusted_Penalty>
0.34949

> <i_epik_Tot_Q>
2

> <i_epik_Tot_abs_Q>
2

> <s_lp_Force_Field>
S-OPLS

> <r_lp_Energy>
68.9753

> <b_lp_Chiralities_Consistent>
1

> <s_lp_Variant>
ligprep_h3d.sdf:2999-1

> <ROCS_ShapeQuery>
_7L13

> <ROCS_TanimotoCombo>
0.709 

> <ROCS_ShapeTanimoto>
0.646 

> <ROCS_ColorTanimoto>
0.063 

> <ROCS_RefTversky>
0.811 

> <ROCS_RefColorTversky>
0.135 

> <ROCS_RefTverskyCombo>
0.946 

> <ROCS_FitTversky>
0.761 

> <ROCS_FitColorTversky>
0.104 

> <ROCS_FitTverskyCombo>
0.865 

> <ROCS_ColorScore>
-1.239

> <ROCS_Overlap>
1351.421

> <ROCS_Rank>
104                 

$$$$
ligprep_h3d.sdf:5349_1855
  -OEChem-08212117123D

 69 74  0     0  0  0  0  0  0999 V2000
  -19.1580   -7.0505  -35.4285 C   0  0  0  0  0  0  0  0  0  0  0  0
  -20.2492   -7.7900  -34.9723 C   0  0  0  0  0  0  0  0  0  0  0  0
  -18.9211   -5.7724  -34.9226 C   0  0  0  0  0  0  0  0  0  0  0  0
  -21.1035   -7.2513  -34.0102 C   0  0  0  0  0  0  0  0  0  0  0  0
  -19.7754   -5.2337  -33.9605 C   0  0  0  0  0  0  0  0  0  0  0  0
  -23.1554   -3.8452  -28.7085 C   0  0  0  0  0  0  0  0  0  0  0  0
  -20.5505   -4.7251  -29.3187 C   0  0  0  0  0  0  0  0  0  0  0  0
  -14.5753   -5.7629  -25.8034 C   0  0  0  0  0  0  0  0  0  0  0  0
  -15.1211   -6.8208  -26.4915 C   0  0  0  0  0  0  0  0  0  0  0  0
  -22.2566   -4.1718  -27.7002 C   0  0  0  0  0  0  0  0  0  0  0  0
  -20.8666   -5.9732  -33.5043 C   0  0  0  0  0  0  0  0  0  0  0  0
  -20.9590   -4.6082  -27.9949 C   0  0  0  0  0  0  0  0  0  0  0  0
  -22.7411   -3.9544  -30.0353 C   0  0  0  0  0  0  0  0  0  0  0  0
  -21.4468   -4.3930  -30.3385 C   0  0  0  0  0  0  0  0  0  0  0  0
  -16.6321   -5.2505  -26.0782 C   0  0  0  0  0  0  0  0  0  0  0  0
  -17.9452   -4.6983  -26.1380 C   0  0  0  0  0  0  0  0  0  0  0  0
  -18.6865   -6.6779  -27.3508 C   0  0  0  0  0  0  0  0  0  0  0  0
  -17.4527   -7.2048  -27.2993 C   0  0  0  0  0  0  0  0  0  0  0  0
  -18.9526   -5.3677  -26.7465 C   0  0  0  0  0  0  0  0  0  0  0  0
  -25.7358   -4.4561  -21.8654 C   0  0  0  0  0  0  0  0  0  0  0  0
  -23.7765   -5.3617  -24.3293 C   0  0  0  0  0  0  0  0  0  0  0  0
  -23.3517   -2.8730  -24.1953 C   0  0  0  0  0  0  0  0  0  0  0  0
  -23.4269   -5.3429  -25.8203 C   0  0  0  0  0  0  0  0  0  0  0  0
  -23.0421   -2.8395  -25.6929 C   0  0  0  0  0  0  0  0  0  0  0  0
  -21.0270   -4.4276  -25.6956 C   0  0  0  0  0  0  0  0  0  0  0  0
  -24.3173   -4.0102  -23.8613 C   0  0  0  0  0  0  0  0  0  0  0  0
  -22.4841   -4.1814  -26.2066 C   0  0  0  0  0  0  0  0  0  0  0  0
  -25.7469   -4.4124  -20.3733 C   0  0  0  0  0  0  0  0  0  0  0  0
  -23.6134   -2.2842  -31.4862 C   0  0  0  0  0  0  0  0  0  0  0  0
  -21.7854   -5.3930  -32.4695 C   0  0  0  0  0  0  0  0  0  0  0  0
  -15.5140   -4.7950  -25.5506 N   0  0  0  0  0  0  0  0  0  0  0  0
  -16.4407   -6.4935  -26.6683 N   0  0  0  0  0  0  0  0  0  0  0  0
  -20.2171   -4.8865  -26.8306 N   0  0  0  0  0  0  0  0  0  0  0  0
  -24.5442   -4.0444  -22.4326 N   0  0  0  0  0  0  0  0  0  0  0  0
  -26.7337   -4.8369  -22.4661 O   0  0  0  0  0  0  0  0  0  0  0  0
  -23.6122   -3.6366  -31.0344 O   0  0  0  0  0  0  0  0  0  0  0  0
  -21.0458   -4.5026  -31.6374 O   0  0  0  0  0  0  0  0  0  0  0  0
  -18.4922   -7.4707  -36.1767 H   0  0  0  0  0  0  0  0  0  0  0  0
  -20.4332   -8.7856  -35.3653 H   0  0  0  0  0  0  0  0  0  0  0  0
  -18.0710   -5.1969  -35.2768 H   0  0  0  0  0  0  0  0  0  0  0  0
  -21.9514   -7.8346  -33.6608 H   0  0  0  0  0  0  0  0  0  0  0  0
  -19.5831   -4.2371  -33.5721 H   0  0  0  0  0  0  0  0  0  0  0  0
  -24.1641   -3.5214  -28.4722 H   0  0  0  0  0  0  0  0  0  0  0  0
  -19.5506   -5.0626  -29.5734 H   0  0  0  0  0  0  0  0  0  0  0  0
  -13.5518   -5.6498  -25.4771 H   0  0  0  0  0  0  0  0  0  0  0  0
  -14.6996   -7.7464  -26.8590 H   0  0  0  0  0  0  0  0  0  0  0  0
  -18.1157   -3.7276  -25.6826 H   0  0  0  0  0  0  0  0  0  0  0  0
  -19.4955   -7.2119  -27.8377 H   0  0  0  0  0  0  0  0  0  0  0  0
  -17.2067   -8.1675  -27.7307 H   0  0  0  0  0  0  0  0  0  0  0  0
  -24.5235   -6.1451  -24.1512 H   0  0  0  0  0  0  0  0  0  0  0  0
  -22.8901   -5.6348  -23.7443 H   0  0  0  0  0  0  0  0  0  0  0  0
  -22.4199   -2.9862  -23.6274 H   0  0  0  0  0  0  0  0  0  0  0  0
  -23.7894   -1.9108  -23.9023 H   0  0  0  0  0  0  0  0  0  0  0  0
  -22.9860   -6.3091  -26.0982 H   0  0  0  0  0  0  0  0  0  0  0  0
  -24.3633   -5.2631  -26.3895 H   0  0  0  0  0  0  0  0  0  0  0  0
  -23.9666   -2.5861  -26.2285 H   0  0  0  0  0  0  0  0  0  0  0  0
  -22.3399   -2.0224  -25.9024 H   0  0  0  0  0  0  0  0  0  0  0  0
  -20.5846   -3.4977  -25.3138 H   0  0  0  0  0  0  0  0  0  0  0  0
  -20.9913   -5.1580  -24.8797 H   0  0  0  0  0  0  0  0  0  0  0  0
  -25.2816   -3.8207  -24.3188 H   0  0  0  0  0  0  0  0  0  0  0  0
  -26.0954   -3.4424  -19.9836 H   0  0  0  0  0  0  0  0  0  0  0  0
  -26.4249   -5.1626  -19.9357 H   0  0  0  0  0  0  0  0  0  0  0  0
  -24.7723   -4.5857  -19.8895 H   0  0  0  0  0  0  0  0  0  0  0  0
  -24.3520   -2.1661  -32.2828 H   0  0  0  0  0  0  0  0  0  0  0  0
  -22.6187   -2.0214  -31.8550 H   0  0  0  0  0  0  0  0  0  0  0  0
  -23.8745   -1.6305  -30.6506 H   0  0  0  0  0  0  0  0  0  0  0  0
  -22.6073   -4.8426  -32.9398 H   0  0  0  0  0  0  0  0  0  0  0  0
  -22.2213   -6.1846  -31.8505 H   0  0  0  0  0  0  0  0  0  0  0  0
  -23.7913   -3.7516  -21.8163 H   0  0  0  0  0  0  0  0  0  0  0  0
  1  2  2  0  0  0  0
  1  3  1  0  0  0  0
  2  4  1  0  0  0  0
  3  5  2  0  0  0  0
  4 11  2  0  0  0  0
  5 11  1  0  0  0  0
  6 10  1  0  0  0  0
  6 13  2  0  0  0  0
  7 12  1  0  0  0  0
  7 14  2  0  0  0  0
  8  9  2  0  0  0  0
  8 31  1  0  0  0  0
  9 32  1  0  0  0  0
 10 12  2  0  0  0  0
 10 27  1  0  0  0  0
 11 30  1  0  0  0  0
 12 33  1  0  0  0  0
 13 14  1  0  0  0  0
 13 36  1  0  0  0  0
 14 37  1  0  0  0  0
 15 16  1  0  0  0  0
 15 31  2  0  0  0  0
 15 32  1  0  0  0  0
 16 19  2  0  0  0  0
 17 18  2  0  0  0  0
 17 19  1  0  0  0  0
 18 32  1  0  0  0  0
 19 33  1  0  0  0  0
 20 28  1  0  0  0  0
 20 34  1  0  0  0  0
 20 35  2  0  0  0  0
 21 23  1  0  0  0  0
 21 26  1  0  0  0  0
 22 24  1  0  0  0  0
 22 26  1  0  0  0  0
 23 27  1  0  0  0  0
 24 27  1  0  0  0  0
 25 27  1  0  0  0  0
 25 33  1  0  0  0  0
 26 34  1  0  0  0  0
 29 36  1  0  0  0  0
 30 37  1  0  0  0  0
  1 38  1  0  0  0  0
  2 39  1  0  0  0  0
  3 40  1  0  0  0  0
  4 41  1  0  0  0  0
  5 42  1  0  0  0  0
  6 43  1  0  0  0  0
  7 44  1  0  0  0  0
  8 45  1  0  0  0  0
  9 46  1  0  0  0  0
 16 47  1  0  0  0  0
 17 48  1  0  0  0  0
 18 49  1  0  0  0  0
 21 50  1  0  0  0  0
 21 51  1  0  0  0  0
 22 52  1  0  0  0  0
 22 53  1  0  0  0  0
 23 54  1  0  0  0  0
 23 55  1  0  0  0  0
 24 56  1  0  0  0  0
 24 57  1  0  0  0  0
 25 58  1  0  0  0  0
 25 59  1  0  0  0  0
 26 60  1  0  0  0  0
 28 61  1  0  0  0  0
 28 62  1  0  0  0  0
 28 63  1  0  0  0  0
 29 64  1  0  0  0  0
 29 65  1  0  0  0  0
 29 66  1  0  0  0  0
 30 67  1  0  0  0  0
 30 68  1  0  0  0  0
 34 69  1  0  0  0  0
M  END
> <SMILES>
COc1cc2c(cc1OCc1ccccc1)N(CC12CCC(CC1)NC(=O)C)c1ccn2ccnc2c1

> <FORMATTED_ID>
H3D-014991

> <MOLFORMULA>
C30H32N4O3

> <Exact Mass>
496.25

> <XLogP>
6.74

> <TPSA_NOPS>
68.1

> <s_m_source_file>
ligprep_h3d.sdf

> <i_m_source_file_index>
5349

> <i_lp_mmshare_version>
55123

> <i_f3d_flags>
0

> <s_epik_input>
W2NIXTFbY0hdW2NIXVtjSF1bY0hdYzFbQ0gyXU9jKGMoW2NIXTIpT1tDSDNdKVtjSF1jKE4oW0NIMl0zKWMoW2NIXVtjSF00KVtjSF1jKG40NSluW2NIXVtjSF01KWMyW0NAXTM2W0NIMl1bQ0gyXVtDQEhdKFtDSDJdW0NIMl02KVtOSF1DKD1PKVtDSDNd

> <s_epik_cmdline>
J2VwaWtfcHl0aG9uJywgJy1waHQnLCAnMC41JywgJy1waCcsICc3LjUnLCAnLXRuJywgJzgnLCAnLW1hJywgJzUwMCcsICctaW1hZScsICc8aW5maWxlLm1hZT4nLCAnLW9tYWUnLCAnPG91dGZpbGUubWFlPic=

> <r_lp_tautomer_probability>
1

> <r_epik_Ionization_Penalty>
0.512276

> <r_epik_Ionization_Penalty_Charging>
0.512275

> <r_epik_Ionization_Penalty_Neutral>
8.01844e-07

> <r_epik_State_Penalty>
0.519618

> <r_epik_Charging_Adjusted_Penalty>
1.03189

> <i_epik_Tot_Q>
0

> <i_epik_Tot_abs_Q>
0

> <s_lp_Force_Field>
S-OPLS

> <r_lp_Energy>
69.1405

> <b_lp_Chiralities_Consistent>
1

> <s_lp_Variant>
ligprep_h3d.sdf:5349-2

> <ROCS_ShapeQuery>
_7L13

> <ROCS_TanimotoCombo>
0.839 

> <ROCS_ShapeTanimoto>
0.664 

> <ROCS_ColorTanimoto>
0.175 

> <ROCS_RefTversky>
0.811 

> <ROCS_RefColorTversky>
0.328 

> <ROCS_RefTverskyCombo>
1.139 

> <ROCS_FitTversky>
0.786 

> <ROCS_FitColorTversky>
0.273 

> <ROCS_FitTverskyCombo>
1.059 

> <ROCS_ColorScore>
-2.990

> <ROCS_Overlap>
1348.599

> <ROCS_Rank>
105                 

$$$$
ligprep_h3d.sdf:5361_848
  -OEChem-08212117123D

 70 75  0     0  0  0  0  0  0999 V2000
  -19.7394   -7.0424  -35.8664 C   0  0  0  0  0  0  0  0  0  0  0  0
  -20.3987   -7.7146  -34.8373 C   0  0  0  0  0  0  0  0  0  0  0  0
  -19.0259   -5.8755  -35.5924 C   0  0  0  0  0  0  0  0  0  0  0  0
  -20.3446   -7.2200  -33.5342 C   0  0  0  0  0  0  0  0  0  0  0  0
  -18.9717   -5.3809  -34.2894 C   0  0  0  0  0  0  0  0  0  0  0  0
  -22.9841   -4.0951  -28.8649 C   0  0  0  0  0  0  0  0  0  0  0  0
  -20.2696   -4.7006  -29.3085 C   0  0  0  0  0  0  0  0  0  0  0  0
  -14.4122   -4.9284  -25.4645 C   0  0  0  0  0  0  0  0  0  0  0  0
  -14.8010   -6.0662  -26.1314 C   0  0  0  0  0  0  0  0  0  0  0  0
  -22.1098   -4.2804  -27.8008 C   0  0  0  0  0  0  0  0  0  0  0  0
  -19.6311   -6.0531  -33.2602 C   0  0  0  0  0  0  0  0  0  0  0  0
  -20.7583   -4.5798  -28.0126 C   0  0  0  0  0  0  0  0  0  0  0  0
  -22.4903   -4.2077  -30.1639 C   0  0  0  0  0  0  0  0  0  0  0  0
  -21.1413   -4.5099  -30.3843 C   0  0  0  0  0  0  0  0  0  0  0  0
  -16.4953   -4.6603  -25.8612 C   0  0  0  0  0  0  0  0  0  0  0  0
  -17.8560   -4.2611  -26.0091 C   0  0  0  0  0  0  0  0  0  0  0  0
  -18.3098   -6.3560  -27.1686 C   0  0  0  0  0  0  0  0  0  0  0  0
  -17.0301   -6.7392  -27.0342 C   0  0  0  0  0  0  0  0  0  0  0  0
  -18.7499   -5.0618  -26.6360 C   0  0  0  0  0  0  0  0  0  0  0  0
  -23.6671   -5.5037  -24.4590 C   0  0  0  0  0  0  0  0  0  0  0  0
  -23.5260   -2.9798  -24.4135 C   0  0  0  0  0  0  0  0  0  0  0  0
  -23.2429   -5.5027  -25.9305 C   0  0  0  0  0  0  0  0  0  0  0  0
  -23.1426   -2.9690  -25.8943 C   0  0  0  0  0  0  0  0  0  0  0  0
  -20.9680   -4.3204  -25.7294 C   0  0  0  0  0  0  0  0  0  0  0  0
  -24.3772   -4.2044  -24.0775 C   0  0  0  0  0  0  0  0  0  0  0  0
  -22.4141   -4.2585  -26.3209 C   0  0  0  0  0  0  0  0  0  0  0  0
  -23.4620   -2.7015  -31.7268 C   0  0  0  0  0  0  0  0  0  0  0  0
  -27.0018   -5.4674  -23.0900 C   0  0  0  0  0  0  0  0  0  0  0  0
  -19.5726   -5.5203  -31.8587 C   0  0  0  0  0  0  0  0  0  0  0  0
  -15.4636   -4.0627  -25.3003 N   0  0  0  0  0  0  0  0  0  0  0  0
  -16.1373   -5.8955  -26.3864 N   0  0  0  0  0  0  0  0  0  0  0  0
  -20.0534   -4.7288  -26.8025 N   0  0  0  0  0  0  0  0  0  0  0  0
  -24.6747   -4.2093  -22.6613 N   0  0  0  0  0  0  0  0  0  0  0  0
  -26.9000   -2.8915  -22.6372 O   0  0  0  0  0  0  0  0  0  0  0  0
  -26.3623   -4.4854  -20.7593 O   0  0  0  0  0  0  0  0  0  0  0  0
  -23.3364   -4.0272  -31.2172 O   0  0  0  0  0  0  0  0  0  0  0  0
  -20.6621   -4.6236  -31.6560 O   0  0  0  0  0  0  0  0  0  0  0  0
  -26.2997   -4.1227  -22.1621 S   0  0  0  0  0  0  0  0  0  0  0  0
  -19.7806   -7.4284  -36.8808 H   0  0  0  0  0  0  0  0  0  0  0  0
  -20.9534   -8.6238  -35.0503 H   0  0  0  0  0  0  0  0  0  0  0  0
  -18.5116   -5.3525  -36.3932 H   0  0  0  0  0  0  0  0  0  0  0  0
  -20.8615   -7.7503  -32.7388 H   0  0  0  0  0  0  0  0  0  0  0  0
  -18.4135   -4.4710  -34.0853 H   0  0  0  0  0  0  0  0  0  0  0  0
  -24.0333   -3.8769  -28.6926 H   0  0  0  0  0  0  0  0  0  0  0  0
  -19.2266   -4.9337  -29.4992 H   0  0  0  0  0  0  0  0  0  0  0  0
  -13.4261   -4.6891  -25.0940 H   0  0  0  0  0  0  0  0  0  0  0  0
  -14.2615   -6.9520  -26.4371 H   0  0  0  0  0  0  0  0  0  0  0  0
  -18.1561   -3.2990  -25.6054 H   0  0  0  0  0  0  0  0  0  0  0  0
  -19.0282   -6.9954  -27.6705 H   0  0  0  0  0  0  0  0  0  0  0  0
  -16.6572   -7.6841  -27.4105 H   0  0  0  0  0  0  0  0  0  0  0  0
  -24.3307   -6.3578  -24.2748 H   0  0  0  0  0  0  0  0  0  0  0  0
  -22.7919   -5.6584  -23.8160 H   0  0  0  0  0  0  0  0  0  0  0  0
  -22.6218   -2.9621  -23.7920 H   0  0  0  0  0  0  0  0  0  0  0  0
  -24.0798   -2.0634  -24.1753 H   0  0  0  0  0  0  0  0  0  0  0  0
  -22.6841   -6.4233  -26.1443 H   0  0  0  0  0  0  0  0  0  0  0  0
  -24.1509   -5.5505  -26.5474 H   0  0  0  0  0  0  0  0  0  0  0  0
  -24.0597   -2.8407  -26.4844 H   0  0  0  0  0  0  0  0  0  0  0  0
  -22.5244   -2.0867  -26.1047 H   0  0  0  0  0  0  0  0  0  0  0  0
  -20.6514   -3.3329  -25.3675 H   0  0  0  0  0  0  0  0  0  0  0  0
  -20.8960   -5.0102  -24.8811 H   0  0  0  0  0  0  0  0  0  0  0  0
  -25.3309   -4.1402  -24.6335 H   0  0  0  0  0  0  0  0  0  0  0  0
  -24.1655   -2.6969  -32.5630 H   0  0  0  0  0  0  0  0  0  0  0  0
  -22.4839   -2.3432  -32.0577 H   0  0  0  0  0  0  0  0  0  0  0  0
  -23.8374   -2.0500  -30.9342 H   0  0  0  0  0  0  0  0  0  0  0  0
  -28.0665   -5.5264  -22.8587 H   0  0  0  0  0  0  0  0  0  0  0  0
  -26.8517   -5.2682  -24.1521 H   0  0  0  0  0  0  0  0  0  0  0  0
  -26.4954   -6.3886  -22.7980 H   0  0  0  0  0  0  0  0  0  0  0  0
  -19.6382   -6.3332  -31.1275 H   0  0  0  0  0  0  0  0  0  0  0  0
  -18.6316   -4.9872  -31.6856 H   0  0  0  0  0  0  0  0  0  0  0  0
  -24.0420   -4.8007  -22.1148 H   0  0  0  0  0  0  0  0  0  0  0  0
  1  2  2  0  0  0  0
  1  3  1  0  0  0  0
  2  4  1  0  0  0  0
  3  5  2  0  0  0  0
  4 11  2  0  0  0  0
  5 11  1  0  0  0  0
  6 10  1  0  0  0  0
  6 13  2  0  0  0  0
  7 12  1  0  0  0  0
  7 14  2  0  0  0  0
  8  9  2  0  0  0  0
  8 30  1  0  0  0  0
  9 31  1  0  0  0  0
 10 12  2  0  0  0  0
 10 26  1  0  0  0  0
 11 29  1  0  0  0  0
 12 32  1  0  0  0  0
 13 14  1  0  0  0  0
 13 36  1  0  0  0  0
 14 37  1  0  0  0  0
 15 16  1  0  0  0  0
 15 30  2  0  0  0  0
 15 31  1  0  0  0  0
 16 19  2  0  0  0  0
 17 18  2  0  0  0  0
 17 19  1  0  0  0  0
 18 31  1  0  0  0  0
 19 32  1  0  0  0  0
 20 22  1  0  0  0  0
 20 25  1  0  0  0  0
 21 23  1  0  0  0  0
 21 25  1  0  0  0  0
 22 26  1  0  0  0  0
 23 26  1  0  0  0  0
 24 26  1  0  0  0  0
 24 32  1  0  0  0  0
 25 33  1  0  0  0  0
 27 36  1  0  0  0  0
 28 38  1  0  0  0  0
 29 37  1  0  0  0  0
 33 38  1  0  0  0  0
 34 38  2  0  0  0  0
 35 38  2  0  0  0  0
  1 39  1  0  0  0  0
  2 40  1  0  0  0  0
  3 41  1  0  0  0  0
  4 42  1  0  0  0  0
  5 43  1  0  0  0  0
  6 44  1  0  0  0  0
  7 45  1  0  0  0  0
  8 46  1  0  0  0  0
  9 47  1  0  0  0  0
 16 48  1  0  0  0  0
 17 49  1  0  0  0  0
 18 50  1  0  0  0  0
 20 51  1  0  0  0  0
 20 52  1  0  0  0  0
 21 53  1  0  0  0  0
 21 54  1  0  0  0  0
 22 55  1  0  0  0  0
 22 56  1  0  0  0  0
 23 57  1  0  0  0  0
 23 58  1  0  0  0  0
 24 59  1  0  0  0  0
 24 60  1  0  0  0  0
 25 61  1  0  0  0  0
 27 62  1  0  0  0  0
 27 63  1  0  0  0  0
 27 64  1  0  0  0  0
 28 65  1  0  0  0  0
 28 66  1  0  0  0  0
 28 67  1  0  0  0  0
 29 68  1  0  0  0  0
 29 69  1  0  0  0  0
 33 70  1  0  0  0  0
M  END
> <SMILES>
COc1cc2c(cc1OCc1ccccc1)N(CC12CCC(CC1)NS(=O)(=O)C)c1ccn2ccnc2c1

> <FORMATTED_ID>
H3D-015082

> <MOLFORMULA>
C29H32N4O4S

> <Exact Mass>
532.21

> <XLogP>
5.98

> <TPSA_NOPS>
93.6

> <s_m_source_file>
ligprep_h3d.sdf

> <i_m_source_file_index>
5361

> <i_lp_mmshare_version>
55123

> <i_f3d_flags>
0

> <s_epik_input>
W2NIXTFbY0hdW2NIXVtjSF1bY0hdYzFbQ0gyXU9jKGMoW2NIXTIpT1tDSDNdKVtjSF1jKE4oW0NIMl0zKWMoW2NIXVtjSF00KVtjSF1jKG40NSluW2NIXVtjSF01KWMyW0NAXTM2W0NIMl1bQ0gyXVtDQEhdKFtDSDJdW0NIMl02KVtOSF1TKD1PKSg9TylbQ0gzXQ==

> <s_epik_cmdline>
J2VwaWtfcHl0aG9uJywgJy1waHQnLCAnMC41JywgJy1waCcsICc3LjUnLCAnLXRuJywgJzgnLCAnLW1hJywgJzUwMCcsICctaW1hZScsICc8aW5maWxlLm1hZT4nLCAnLW9tYWUnLCAnPG91dGZpbGUubWFlPic=

> <r_lp_tautomer_probability>
1

> <r_epik_Ionization_Penalty>
0.51039

> <r_epik_Ionization_Penalty_Charging>
0.510377

> <r_epik_Ionization_Penalty_Neutral>
1.29458e-05

> <r_epik_State_Penalty>
0.517575

> <r_epik_Charging_Adjusted_Penalty>
1.02795

> <i_epik_Tot_Q>
0

> <i_epik_Tot_abs_Q>
0

> <s_lp_Force_Field>
S-OPLS

> <r_lp_Energy>
51.6997

> <b_lp_Chiralities_Consistent>
1

> <s_lp_Variant>
ligprep_h3d.sdf:5361-2

> <ROCS_ShapeQuery>
_7L13

> <ROCS_TanimotoCombo>
0.768 

> <ROCS_ShapeTanimoto>
0.657 

> <ROCS_ColorTanimoto>
0.111 

> <ROCS_RefTversky>
0.811 

> <ROCS_RefColorTversky>
0.229 

> <ROCS_RefTverskyCombo>
1.040 

> <ROCS_FitTversky>
0.777 

> <ROCS_FitColorTversky>
0.176 

> <ROCS_FitTverskyCombo>
0.953 

> <ROCS_ColorScore>
-2.095

> <ROCS_Overlap>
1349.509

> <ROCS_Rank>
106                 

$$$$
ligprep_h3d.sdf:5324_463
  -OEChem-08212117123D

 68 73  0     0  0  0  0  0  0999 V2000
  -19.4473   -6.2553  -36.2369 C   0  0  0  0  0  0  0  0  0  0  0  0
  -20.4452   -6.8143  -35.4387 C   0  0  0  0  0  0  0  0  0  0  0  0
  -18.4242   -5.5080  -35.6533 C   0  0  0  0  0  0  0  0  0  0  0  0
  -20.4202   -6.6260  -34.0568 C   0  0  0  0  0  0  0  0  0  0  0  0
  -18.3992   -5.3196  -34.2714 C   0  0  0  0  0  0  0  0  0  0  0  0
  -22.7031   -4.2499  -29.0854 C   0  0  0  0  0  0  0  0  0  0  0  0
  -19.9048   -4.5552  -29.2933 C   0  0  0  0  0  0  0  0  0  0  0  0
  -14.6308   -5.3293  -25.6003 C   0  0  0  0  0  0  0  0  0  0  0  0
  -14.1031   -4.2077  -26.1843 C   0  0  0  0  0  0  0  0  0  0  0  0
  -21.9158   -4.3558  -27.9454 C   0  0  0  0  0  0  0  0  0  0  0  0
  -19.3972   -5.8786  -33.4732 C   0  0  0  0  0  0  0  0  0  0  0  0
  -20.5322   -4.5066  -28.0569 C   0  0  0  0  0  0  0  0  0  0  0  0
  -22.0852   -4.2973  -30.3366 C   0  0  0  0  0  0  0  0  0  0  0  0
  -20.6955   -4.4490  -30.4393 C   0  0  0  0  0  0  0  0  0  0  0  0
  -16.2883   -4.1725  -26.5130 C   0  0  0  0  0  0  0  0  0  0  0  0
  -17.6917   -3.8597  -26.8952 C   0  0  0  0  0  0  0  0  0  0  0  0
  -18.2259   -5.9352  -25.7532 C   0  0  0  0  0  0  0  0  0  0  0  0
  -16.9472   -6.1942  -25.4198 C   0  0  0  0  0  0  0  0  0  0  0  0
  -18.6402   -4.7420  -26.5122 C   0  0  0  0  0  0  0  0  0  0  0  0
  -26.5008   -4.8269  -23.0463 C   0  0  0  0  0  0  0  0  0  0  0  0
  -23.3092   -5.5049  -26.1844 C   0  0  0  0  0  0  0  0  0  0  0  0
  -23.0372   -2.9934  -26.1424 C   0  0  0  0  0  0  0  0  0  0  0  0
  -20.9966   -4.4916  -25.7613 C   0  0  0  0  0  0  0  0  0  0  0  0
  -23.8486   -5.4612  -24.7592 C   0  0  0  0  0  0  0  0  0  0  0  0
  -23.5783   -2.9677  -24.7175 C   0  0  0  0  0  0  0  0  0  0  0  0
  -22.3609   -4.3315  -26.4967 C   0  0  0  0  0  0  0  0  0  0  0  0
  -23.0733   -2.8812  -31.9718 C   0  0  0  0  0  0  0  0  0  0  0  0
  -19.3699   -5.6754  -31.9868 C   0  0  0  0  0  0  0  0  0  0  0  0
  -25.1783   -4.0821  -23.1652 C   0  0  0  0  0  0  0  0  0  0  0  0
  -15.9920   -5.2863  -25.8174 N   0  0  0  0  0  0  0  0  0  0  0  0
  -15.1506   -3.5111  -26.7406 N   0  3  0  0  0  0  0  0  0  0  0  0
  -19.9526   -4.5920  -26.7868 N   0  0  0  0  0  0  0  0  0  0  0  0
  -24.5179   -4.1310  -24.5158 N   0  3  0  0  0  0  0  0  0  0  0  0
  -27.0633   -4.7895  -21.9174 O   0  5  0  0  0  0  0  0  0  0  0  0
  -26.8723   -5.3988  -24.1111 O   0  0  0  0  0  0  0  0  0  0  0  0
  -22.8498   -4.1932  -31.4605 O   0  0  0  0  0  0  0  0  0  0  0  0
  -20.0995   -4.4936  -31.6652 O   0  0  0  0  0  0  0  0  0  0  0  0
  -19.4661   -6.4032  -37.3127 H   0  0  0  0  0  0  0  0  0  0  0  0
  -21.2412   -7.3972  -35.8928 H   0  0  0  0  0  0  0  0  0  0  0  0
  -17.6465   -5.0735  -36.2743 H   0  0  0  0  0  0  0  0  0  0  0  0
  -21.2021   -7.0651  -33.4428 H   0  0  0  0  0  0  0  0  0  0  0  0
  -17.5984   -4.7358  -33.8255 H   0  0  0  0  0  0  0  0  0  0  0  0
  -23.7796   -4.1324  -29.0082 H   0  0  0  0  0  0  0  0  0  0  0  0
  -18.8306   -4.6714  -29.3869 H   0  0  0  0  0  0  0  0  0  0  0  0
  -14.2216   -6.1591  -25.0557 H   0  0  0  0  0  0  0  0  0  0  0  0
  -13.1208   -3.7917  -26.2902 H   0  0  0  0  0  0  0  0  0  0  0  0
  -17.9071   -2.9580  -27.4549 H   0  0  0  0  0  0  0  0  0  0  0  0
  -19.0018   -6.6339  -25.4532 H   0  0  0  0  0  0  0  0  0  0  0  0
  -16.6325   -7.0672  -24.8630 H   0  0  0  0  0  0  0  0  0  0  0  0
  -22.8016   -6.4644  -26.3487 H   0  0  0  0  0  0  0  0  0  0  0  0
  -24.1610   -5.4956  -26.8777 H   0  0  0  0  0  0  0  0  0  0  0  0
  -23.8690   -2.7971  -26.8326 H   0  0  0  0  0  0  0  0  0  0  0  0
  -22.3355   -2.1598  -26.2769 H   0  0  0  0  0  0  0  0  0  0  0  0
  -20.7828   -3.6357  -25.1096 H   0  0  0  0  0  0  0  0  0  0  0  0
  -20.9756   -5.3909  -25.1338 H   0  0  0  0  0  0  0  0  0  0  0  0
  -24.6052   -6.2395  -24.6142 H   0  0  0  0  0  0  0  0  0  0  0  0
  -23.0600   -5.5800  -24.0090 H   0  0  0  0  0  0  0  0  0  0  0  0
  -22.7851   -3.0457  -23.9667 H   0  0  0  0  0  0  0  0  0  0  0  0
  -24.1512   -2.0507  -24.5439 H   0  0  0  0  0  0  0  0  0  0  0  0
  -23.6965   -2.9396  -32.8675 H   0  0  0  0  0  0  0  0  0  0  0  0
  -22.1146   -2.4145  -32.2118 H   0  0  0  0  0  0  0  0  0  0  0  0
  -23.5859   -2.2862  -31.2122 H   0  0  0  0  0  0  0  0  0  0  0  0
  -19.8218   -6.5268  -31.4665 H   0  0  0  0  0  0  0  0  0  0  0  0
  -18.3401   -5.5704  -31.6287 H   0  0  0  0  0  0  0  0  0  0  0  0
  -24.4550   -4.4987  -22.4574 H   0  0  0  0  0  0  0  0  0  0  0  0
  -25.3304   -3.0223  -22.9389 H   0  0  0  0  0  0  0  0  0  0  0  0
  -15.0713   -2.6325  -27.2452 H   0  0  0  0  0  0  0  0  0  0  0  0
  -25.2721   -4.0376  -25.2102 H   0  0  0  0  0  0  0  0  0  0  0  0
  1  2  2  0  0  0  0
  1  3  1  0  0  0  0
  2  4  1  0  0  0  0
  3  5  2  0  0  0  0
  4 11  2  0  0  0  0
  5 11  1  0  0  0  0
  6 10  1  0  0  0  0
  6 13  2  0  0  0  0
  7 12  1  0  0  0  0
  7 14  2  0  0  0  0
  8  9  2  0  0  0  0
  8 30  1  0  0  0  0
  9 31  1  0  0  0  0
 10 12  2  0  0  0  0
 10 26  1  0  0  0  0
 11 28  1  0  0  0  0
 12 32  1  0  0  0  0
 13 14  1  0  0  0  0
 13 36  1  0  0  0  0
 14 37  1  0  0  0  0
 15 16  1  0  0  0  0
 15 30  1  0  0  0  0
 15 31  2  0  0  0  0
 16 19  2  0  0  0  0
 17 18  2  0  0  0  0
 17 19  1  0  0  0  0
 18 30  1  0  0  0  0
 19 32  1  0  0  0  0
 20 29  1  0  0  0  0
 20 34  1  0  0  0  0
 20 35  2  0  0  0  0
 21 24  1  0  0  0  0
 21 26  1  0  0  0  0
 22 25  1  0  0  0  0
 22 26  1  0  0  0  0
 23 26  1  0  0  0  0
 23 32  1  0  0  0  0
 24 33  1  0  0  0  0
 25 33  1  0  0  0  0
 27 36  1  0  0  0  0
 28 37  1  0  0  0  0
 29 33  1  0  0  0  0
  1 38  1  0  0  0  0
  2 39  1  0  0  0  0
  3 40  1  0  0  0  0
  4 41  1  0  0  0  0
  5 42  1  0  0  0  0
  6 43  1  0  0  0  0
  7 44  1  0  0  0  0
  8 45  1  0  0  0  0
  9 46  1  0  0  0  0
 16 47  1  0  0  0  0
 17 48  1  0  0  0  0
 18 49  1  0  0  0  0
 21 50  1  0  0  0  0
 21 51  1  0  0  0  0
 22 52  1  0  0  0  0
 22 53  1  0  0  0  0
 23 54  1  0  0  0  0
 23 55  1  0  0  0  0
 24 56  1  0  0  0  0
 24 57  1  0  0  0  0
 25 58  1  0  0  0  0
 25 59  1  0  0  0  0
 27 60  1  0  0  0  0
 27 61  1  0  0  0  0
 27 62  1  0  0  0  0
 28 63  1  0  0  0  0
 28 64  1  0  0  0  0
 29 65  1  0  0  0  0
 29 66  1  0  0  0  0
 31 67  1  0  0  0  0
 33 68  1  0  0  0  0
M  CHG  3  31   1  33   1  34  -1
M  END
> <SMILES>
COc1cc2c(cc1OCc1ccccc1)N(CC12CCN(CC1)CC(=O)O)c1ccn2ccnc2c1

> <FORMATTED_ID>
H3D-014888

> <MOLFORMULA>
C29H30N4O4

> <Exact Mass>
498.23

> <XLogP>
5.09

> <TPSA_NOPS>
79.5

> <s_m_source_file>
ligprep_h3d.sdf

> <i_m_source_file_index>
5324

> <i_lp_mmshare_version>
55123

> <i_f3d_flags>
0

> <s_epik_input>
W2NIXTFbY0hdW2NIXVtjSF1bY0hdYzFbQ0gyXU9jKGMoW2NIXTIpT1tDSDNdKVtjSF1jKE4oW0NIMl0zKWMoW2NIXVtjSF00KVtjSF1jKG40NSluW2NIXVtjSF01KWMyQzM2W0NIMl1bQ0gyXU4oW0NIMl1bQ0gyXTYpW0NIMl1DKD1PKVtPSF0=

> <s_epik_cmdline>
J2VwaWtfcHl0aG9uJywgJy1waHQnLCAnMC41JywgJy1waCcsICc3LjUnLCAnLXRuJywgJzgnLCAnLW1hJywgJzUwMCcsICctaW1hZScsICc8aW5maWxlLm1hZT4nLCAnLW9tYWUnLCAnPG91dGZpbGUubWFlPic=

> <r_lp_tautomer_probability>
1

> <r_epik_Ionization_Penalty>
0.404122

> <r_epik_Ionization_Penalty_Charging>
0.00680431

> <r_epik_Ionization_Penalty_Neutral>
0.397317

> <r_epik_State_Penalty>
0.396432

> <r_epik_Charging_Adjusted_Penalty>
0.403236

> <i_epik_Tot_Q>
1

> <i_epik_Tot_abs_Q>
3

> <s_lp_Force_Field>
S-OPLS

> <r_lp_Energy>
77.2808

> <b_lp_Chiralities_Consistent>
1

> <s_lp_Variant>
ligprep_h3d.sdf:5324-1

> <ROCS_ShapeQuery>
_7L13

> <ROCS_TanimotoCombo>
0.746 

> <ROCS_ShapeTanimoto>
0.664 

> <ROCS_ColorTanimoto>
0.082 

> <ROCS_RefTversky>
0.811 

> <ROCS_RefColorTversky>
0.197 

> <ROCS_RefTverskyCombo>
1.008 

> <ROCS_FitTversky>
0.785 

> <ROCS_FitColorTversky>
0.124 

> <ROCS_FitTverskyCombo>
0.910 

> <ROCS_ColorScore>
-1.832

> <ROCS_Overlap>
1348.639

> <ROCS_Rank>
107                 

$$$$
ligprep_h3d.sdf:2375_1729
  -OEChem-08212117123D

 97101  0     1  0  0  0  0  0999 V2000
  -25.0219   -5.4286  -22.8670 C   0  0  0  0  0  0  0  0  0  0  0  0
  -25.5216   -5.4249  -24.1506 C   0  0  0  0  0  0  0  0  0  0  0  0
  -23.5406   -3.7829  -23.4387 C   0  0  0  0  0  0  0  0  0  0  0  0
  -24.0397   -3.7796  -24.7226 C   0  0  0  0  0  0  0  0  0  0  0  0
  -21.7092   -3.9888  -29.8205 C   0  0  0  0  0  0  0  0  0  0  0  0
  -18.5395   -5.6023  -26.2716 C   0  0  0  0  0  0  0  0  0  0  0  0
  -21.2154   -3.9947  -28.5767 C   0  0  0  0  0  0  0  0  0  0  0  0
  -17.3131   -5.2413  -25.8485 C   0  0  0  0  0  0  0  0  0  0  0  0
  -21.7761   -3.0533  -27.5582 C   0  0  0  0  0  0  0  0  0  0  0  0
  -23.4750   -0.8073  -29.9783 C   0  0  0  0  0  0  0  0  0  0  0  0
  -20.5629   -4.2673  -36.0170 C   0  0  0  0  0  0  0  0  0  0  0  0
  -19.4393   -8.5317  -36.2687 C   0  0  0  0  0  0  0  0  0  0  0  0
  -21.4133   -3.8434  -34.8075 C   0  0  0  0  0  0  0  0  0  0  0  0
  -19.8160   -7.8828  -34.9213 C   0  0  0  0  0  0  0  0  0  0  0  0
  -19.9143   -5.5694  -30.9654 C   0  0  0  0  0  0  0  0  0  0  0  0
  -22.8103   -3.2882  -31.8561 C   0  0  0  0  0  0  0  0  0  0  0  0
  -19.9458   -6.3093  -37.4508 C   0  0  0  0  0  0  0  0  0  0  0  0
  -21.2702   -4.8671  -30.9666 C   0  0  2  0  0  0  0  0  0  0  0  0
  -22.7715   -3.0359  -30.3324 C   0  0  2  0  0  0  0  0  0  0  0  0
  -20.4353   -5.7799  -36.0953 C   0  0  1  0  0  0  0  0  0  0  0  0
  -19.9999   -5.6031  -33.5441 C   0  0  1  0  0  0  0  0  0  0  0  0
  -20.0551   -7.8413  -37.4895 C   0  0  2  0  0  0  0  0  0  0  0  0
  -19.7549   -6.4207  -32.2419 C   0  0  2  0  0  0  0  0  0  0  0  0
  -19.6098   -6.3453  -34.9014 C   0  0  1  0  0  0  0  0  0  0  0  0
  -21.3627   -4.7884  -33.5515 C   0  0  1  0  0  0  0  0  0  0  0  0
  -21.4367   -3.9300  -32.1966 C   0  0  1  0  0  0  0  0  0  0  0  0
  -16.2910   -6.2909  -25.4994 C   0  0  0  0  0  0  0  0  0  0  0  0
  -16.8314   -3.8292  -25.6721 C   0  0  0  0  0  0  0  0  0  0  0  0
  -23.1159    0.3149  -29.0521 C   0  0  0  0  0  0  0  0  0  0  0  0
  -18.0777   -6.0821  -35.0859 C   0  0  0  0  0  0  0  0  0  0  0  0
  -22.5877   -5.7509  -33.6396 C   0  0  0  0  0  0  0  0  0  0  0  0
  -20.3671   -2.7792  -32.1728 C   0  0  0  0  0  0  0  0  0  0  0  0
  -24.5224   -1.8748  -26.3135 C   0  0  0  0  0  0  0  0  0  0  0  0
  -19.6839   -4.7121  -26.6720 C   0  0  0  0  0  0  0  0  0  0  0  0
  -20.0451   -4.8500  -28.1575 C   0  0  0  0  0  0  0  0  0  0  0  0
  -23.4731   -2.8394  -25.7645 C   0  0  2  0  0  0  0  0  0  0  0  0
  -24.0224   -4.6077  -22.4879 N   0  0  0  0  0  0  0  0  0  0  0  0
  -25.0394   -4.6004  -25.1015 N   0  0  0  0  0  0  0  0  0  0  0  0
  -22.8404   -3.5680  -26.8396 N   0  0  0  0  0  0  0  0  0  0  0  0
  -21.2596   -1.9538  -27.3749 O   0  0  0  0  0  0  0  0  0  0  0  0
  -24.5536   -0.9078  -30.5471 O   0  0  0  0  0  0  0  0  0  0  0  0
  -21.4336   -8.2159  -37.5506 O   0  0  0  0  0  0  0  0  0  0  0  0
  -20.6475   -7.5284  -32.1645 O   0  0  0  0  0  0  0  0  0  0  0  0
  -22.4269   -1.6812  -30.0826 O   0  0  0  0  0  0  0  0  0  0  0  0
  -25.4097   -6.0916  -22.1035 H   0  0  0  0  0  0  0  0  0  0  0  0
  -26.3248   -6.0848  -24.4544 H   0  0  0  0  0  0  0  0  0  0  0  0
  -22.7373   -3.1258  -23.1268 H   0  0  0  0  0  0  0  0  0  0  0  0
  -18.7581   -6.6668  -26.3520 H   0  0  0  0  0  0  0  0  0  0  0  0
  -21.0295   -3.8712  -36.9272 H   0  0  0  0  0  0  0  0  0  0  0  0
  -19.5750   -3.7977  -35.9557 H   0  0  0  0  0  0  0  0  0  0  0  0
  -18.3488   -8.5443  -36.3741 H   0  0  0  0  0  0  0  0  0  0  0  0
  -19.7566   -9.5817  -36.2400 H   0  0  0  0  0  0  0  0  0  0  0  0
  -21.1139   -2.8212  -34.5673 H   0  0  0  0  0  0  0  0  0  0  0  0
  -22.4548   -3.7426  -35.1412 H   0  0  0  0  0  0  0  0  0  0  0  0
  -20.8640   -8.1219  -34.7068 H   0  0  0  0  0  0  0  0  0  0  0  0
  -19.2142   -8.3654  -34.1424 H   0  0  0  0  0  0  0  0  0  0  0  0
  -19.0963   -4.8436  -30.8959 H   0  0  0  0  0  0  0  0  0  0  0  0
  -19.8422   -6.2193  -30.0848 H   0  0  0  0  0  0  0  0  0  0  0  0
  -23.6324   -3.9819  -32.0594 H   0  0  0  0  0  0  0  0  0  0  0  0
  -22.9946   -2.3753  -32.4323 H   0  0  0  0  0  0  0  0  0  0  0  0
  -20.5711   -5.8837  -38.2460 H   0  0  0  0  0  0  0  0  0  0  0  0
  -18.9196   -5.9893  -37.6560 H   0  0  0  0  0  0  0  0  0  0  0  0
  -22.0315   -5.6567  -30.9828 H   0  0  0  0  0  0  0  0  0  0  0  0
  -23.7489   -3.2417  -29.8863 H   0  0  0  0  0  0  0  0  0  0  0  0
  -21.4606   -6.1558  -36.0312 H   0  0  0  0  0  0  0  0  0  0  0  0
  -19.2419   -4.8145  -33.4759 H   0  0  0  0  0  0  0  0  0  0  0  0
  -19.5822   -8.2241  -38.4007 H   0  0  0  0  0  0  0  0  0  0  0  0
  -18.7379   -6.8290  -32.2544 H   0  0  0  0  0  0  0  0  0  0  0  0
  -15.6995   -6.5524  -26.3831 H   0  0  0  0  0  0  0  0  0  0  0  0
  -15.5957   -5.9555  -24.7226 H   0  0  0  0  0  0  0  0  0  0  0  0
  -16.7872   -7.1953  -25.1322 H   0  0  0  0  0  0  0  0  0  0  0  0
  -17.0138   -3.4229  -24.6757 H   0  0  0  0  0  0  0  0  0  0  0  0
  -17.3297   -3.1707  -26.3914 H   0  0  0  0  0  0  0  0  0  0  0  0
  -15.7517   -3.7763  -25.8489 H   0  0  0  0  0  0  0  0  0  0  0  0
  -23.3959    0.0548  -28.0284 H   0  0  0  0  0  0  0  0  0  0  0  0
  -23.6190    1.2322  -29.3683 H   0  0  0  0  0  0  0  0  0  0  0  0
  -22.0353    0.4816  -29.0864 H   0  0  0  0  0  0  0  0  0  0  0  0
  -17.9209   -5.0172  -35.0739 H   0  0  0  0  0  0  0  0  0  0  0  0
  -17.7807   -6.5048  -36.0303 H   0  0  0  0  0  0  0  0  0  0  0  0
  -17.5596   -6.5574  -34.2707 H   0  0  0  0  0  0  0  0  0  0  0  0
  -22.5638   -6.4045  -32.7827 H   0  0  0  0  0  0  0  0  0  0  0  0
  -22.5056   -6.3165  -34.5536 H   0  0  0  0  0  0  0  0  0  0  0  0
  -23.4851   -5.1535  -33.6393 H   0  0  0  0  0  0  0  0  0  0  0  0
  -19.4139   -3.2164  -32.4076 H   0  0  0  0  0  0  0  0  0  0  0  0
  -20.3684   -2.3546  -31.1856 H   0  0  0  0  0  0  0  0  0  0  0  0
  -20.6550   -2.0525  -32.9102 H   0  0  0  0  0  0  0  0  0  0  0  0
  -25.3509   -2.4177  -26.7815 H   0  0  0  0  0  0  0  0  0  0  0  0
  -24.9341   -1.2563  -25.5080 H   0  0  0  0  0  0  0  0  0  0  0  0
  -24.1011   -1.1922  -27.0601 H   0  0  0  0  0  0  0  0  0  0  0  0
  -20.5718   -4.8676  -26.0530 H   0  0  0  0  0  0  0  0  0  0  0  0
  -19.3751   -3.6753  -26.4868 H   0  0  0  0  0  0  0  0  0  0  0  0
  -19.1699   -4.5778  -28.7611 H   0  0  0  0  0  0  0  0  0  0  0  0
  -20.2451   -5.9056  -28.3848 H   0  0  0  0  0  0  0  0  0  0  0  0
  -22.6742   -2.2397  -25.3112 H   0  0  0  0  0  0  0  0  0  0  0  0
  -23.1897   -4.4918  -27.0765 H   0  0  0  0  0  0  0  0  0  0  0  0
  -21.4495   -9.1805  -37.6360 H   0  0  0  0  0  0  0  0  0  0  0  0
  -20.3976   -8.0304  -31.3731 H   0  0  0  0  0  0  0  0  0  0  0  0
  1  2  1  0  0  0  0
  1 37  2  0  0  0  0
  2 38  2  0  0  0  0
  3  4  2  0  0  0  0
  3 37  1  0  0  0  0
  4 36  1  0  0  0  0
  4 38  1  0  0  0  0
  5  7  2  0  0  0  0
  5 18  1  0  0  0  0
  5 19  1  0  0  0  0
  6  8  2  0  0  0  0
  6 34  1  0  0  0  0
  7  9  1  0  0  0  0
  7 35  1  0  0  0  0
  8 27  1  0  0  0  0
  8 28  1  0  0  0  0
  9 39  1  0  0  0  0
  9 40  2  0  0  0  0
 10 29  1  0  0  0  0
 10 41  2  0  0  0  0
 10 44  1  0  0  0  0
 11 13  1  0  0  0  0
 11 20  1  0  0  0  0
 12 14  1  0  0  0  0
 12 22  1  0  0  0  0
 13 25  1  0  0  0  0
 14 24  1  0  0  0  0
 15 18  1  0  0  0  0
 15 23  1  0  0  0  0
 16 19  1  0  0  0  0
 16 26  1  0  0  0  0
 17 20  1  0  0  0  0
 17 22  1  0  0  0  0
 18 26  1  0  0  0  0
 19 44  1  0  0  0  0
 20 24  1  0  0  0  0
 21 23  1  0  0  0  0
 21 24  1  0  0  0  0
 21 25  1  0  0  0  0
 22 42  1  0  0  0  0
 23 43  1  0  0  0  0
 24 30  1  0  0  0  0
 25 26  1  0  0  0  0
 25 31  1  0  0  0  0
 26 32  1  0  0  0  0
 33 36  1  0  0  0  0
 34 35  1  0  0  0  0
 36 39  1  0  0  0  0
  1 45  1  0  0  0  0
  2 46  1  0  0  0  0
  3 47  1  0  0  0  0
  6 48  1  0  0  0  0
 11 49  1  0  0  0  0
 11 50  1  0  0  0  0
 12 51  1  0  0  0  0
 12 52  1  0  0  0  0
 13 53  1  0  0  0  0
 13 54  1  0  0  0  0
 14 55  1  0  0  0  0
 14 56  1  0  0  0  0
 15 57  1  0  0  0  0
 15 58  1  0  0  0  0
 16 59  1  0  0  0  0
 16 60  1  0  0  0  0
 17 61  1  0  0  0  0
 17 62  1  0  0  0  0
 18 63  1  0  0  0  0
 19 64  1  0  0  0  0
 20 65  1  0  0  0  0
 21 66  1  0  0  0  0
 22 67  1  0  0  0  0
 23 68  1  0  0  0  0
 27 69  1  0  0  0  0
 27 70  1  0  0  0  0
 27 71  1  0  0  0  0
 28 72  1  0  0  0  0
 28 73  1  0  0  0  0
 28 74  1  0  0  0  0
 29 75  1  0  0  0  0
 29 76  1  0  0  0  0
 29 77  1  0  0  0  0
 30 78  1  0  0  0  0
 30 79  1  0  0  0  0
 30 80  1  0  0  0  0
 31 81  1  0  0  0  0
 31 82  1  0  0  0  0
 31 83  1  0  0  0  0
 32 84  1  0  0  0  0
 32 85  1  0  0  0  0
 32 86  1  0  0  0  0
 33 87  1  0  0  0  0
 33 88  1  0  0  0  0
 33 89  1  0  0  0  0
 34 90  1  0  0  0  0
 34 91  1  0  0  0  0
 35 92  1  0  0  0  0
 35 93  1  0  0  0  0
 36 94  1  0  0  0  0
 39 95  1  0  0  0  0
 42 96  1  0  0  0  0
 43 97  1  0  0  0  0
M  END
> <SMILES>
CC(NC(=O)/C(=C/1\[C@H](C[C@@]2(C)[C@H]1C[C@@H](O)[C@H]1[C@@]3(C)CC[C@@H](O)C[C@@H]3CC[C@@]12C)OC(=O)C)CCC=C(C)C)c1cnccn1

> <FORMATTED_ID>
H3D-005464

> <MOLFORMULA>
C36H53N3O5

> <Exact Mass>
607.4

> <XLogP>
4.57

> <TPSA_NOPS>
121.6

> <s_m_source_file>
ligprep_h3d.sdf

> <i_m_source_file_index>
2375

> <i_lp_mmshare_version>
55123

> <i_f3d_flags>
0

> <s_epik_input>
bjFbY0hdW2NIXW5bY0hdYzFbQ0BIXShbQ0gzXSlbTkhdQyg9TykvQyhbQ0gyXVtDSDJdW0NIXT1DKFtDSDNdKVtDSDNdKT1DKFxbQ0BIXShbQ0gyXTIpT0MoPU8pW0NIM10pW0NAQEhdKFtDQF0yM1tDSDNdKVtDSDJdW0NAQEhdKFtPSF0pW0NASF00W0NAXTUoW0NIM10pW0NASF0oW0NIMl1bQ0BIXShbT0hdKVtDSDJdW0NIMl01KVtDSDJdW0NIMl1bQ0BdMzRbQ0gzXQ==

> <s_epik_cmdline>
J2VwaWtfcHl0aG9uJywgJy1waHQnLCAnMC41JywgJy1waCcsICc3LjUnLCAnLXRuJywgJzgnLCAnLW1hJywgJzUwMCcsICctaW1hZScsICc8aW5maWxlLm1hZT4nLCAnLW9tYWUnLCAnPG91dGZpbGUubWFlPic=

> <r_lp_tautomer_probability>
1

> <r_epik_Ionization_Penalty>
2.14451e-06

> <r_epik_Ionization_Penalty_Charging>
0

> <r_epik_Ionization_Penalty_Neutral>
2.14451e-06

> <r_epik_State_Penalty>
-0

> <r_epik_Charging_Adjusted_Penalty>
0

> <i_epik_Tot_Q>
0

> <i_epik_Tot_abs_Q>
0

> <s_epik_Chemistry_Notes>
This compound has an ester and may undergo hydrolysis at high or low pH.

> <s_lp_Force_Field>
S-OPLS

> <r_lp_Energy>
79.7869

> <b_lp_Chiralities_Consistent>
1

> <s_lp_Variant>
ligprep_h3d.sdf:2375-1

> <ROCS_ShapeQuery>
_7L13

> <ROCS_TanimotoCombo>
0.708 

> <ROCS_ShapeTanimoto>
0.605 

> <ROCS_ColorTanimoto>
0.102 

> <ROCS_RefTversky>
0.811 

> <ROCS_RefColorTversky>
0.248 

> <ROCS_RefTverskyCombo>
1.059 

> <ROCS_FitTversky>
0.705 

> <ROCS_FitColorTversky>
0.148 

> <ROCS_FitTverskyCombo>
0.853 

> <ROCS_ColorScore>
-2.321

> <ROCS_Overlap>
1357.508

> <ROCS_Rank>
108                 

$$$$
ligprep_h3d.sdf:1112_1980
  -OEChem-08212117123D

 60 65  0     1  0  0  0  0  0999 V2000
  -20.6533   -4.7122  -29.5651 C   0  0  0  0  0  0  0  0  0  0  0  0
  -21.5490   -4.1006  -30.4445 C   0  0  0  0  0  0  0  0  0  0  0  0
  -20.8915   -4.6153  -28.1724 C   0  0  0  0  0  0  0  0  0  0  0  0
  -22.0244   -3.9572  -27.6388 C   0  0  0  0  0  0  0  0  0  0  0  0
  -22.6315   -3.4315  -29.9174 C   0  0  0  0  0  0  0  0  0  0  0  0
  -22.9043   -3.3305  -28.5529 C   0  0  0  0  0  0  0  0  0  0  0  0
  -21.6974   -3.9365  -31.8342 C   0  0  0  0  0  0  0  0  0  0  0  0
  -19.5408   -7.9612  -35.0564 C   0  0  0  0  0  0  0  0  0  0  0  0
  -19.1551   -3.2079  -26.0529 C   0  0  0  0  0  0  0  0  0  0  0  0
  -18.9806   -5.5738  -25.0438 C   0  0  0  0  0  0  0  0  0  0  0  0
  -16.9494   -4.2311  -25.5436 C   0  0  0  0  0  0  0  0  0  0  0  0
  -19.8942   -5.2689  -27.2533 C   0  0  0  0  0  0  0  0  0  0  0  0
  -18.8208   -6.6569  -35.2955 C   0  0  0  0  0  0  0  0  0  0  0  0
  -18.7486   -6.0427  -33.8999 C   0  0  0  0  0  0  0  0  0  0  0  0
  -23.4336   -3.2609  -25.7121 C   0  0  0  0  0  0  0  0  0  0  0  0
  -21.2612   -4.4694  -25.2853 C   0  0  2  0  0  0  0  0  0  0  0  0
  -19.9865   -6.5797  -33.1921 C   0  0  1  0  0  0  0  0  0  0  0  0
  -23.7868   -3.7663  -24.3104 C   0  0  1  0  0  0  0  0  0  0  0  0
  -21.3932   -3.6219  -23.9864 C   0  0  2  0  0  0  0  0  0  0  0  0
  -19.8193   -4.5821  -25.8668 C   0  0  0  0  0  0  0  0  0  0  0  0
  -24.4618   -5.1365  -24.3319 C   0  0  0  0  0  0  0  0  0  0  0  0
  -20.4039   -3.9419  -22.8721 C   0  0  0  0  0  0  0  0  0  0  0  0
  -21.2031   -5.6817  -33.3724 C   0  0  0  0  0  0  0  0  0  0  0  0
  -22.7827   -3.2221  -32.1471 N   0  0  0  0  0  0  0  0  0  0  0  0
  -17.7700   -3.2115  -26.0041 N   0  0  0  0  0  0  0  0  0  0  0  0
  -17.6127   -5.3498  -25.0599 N   0  0  0  0  0  0  0  0  0  0  0  0
  -20.1837   -7.8594  -33.8271 N   0  0  0  0  0  0  0  0  0  0  0  0
  -22.2425   -3.9231  -26.2594 N   0  0  3  0  0  0  0  0  0  0  0  0
  -19.5696   -8.9052  -35.8307 O   0  0  0  0  0  0  0  0  0  0  0  0
  -19.7874   -2.1794  -26.2929 O   0  0  0  0  0  0  0  0  0  0  0  0
  -19.4683   -6.5541  -24.4796 O   0  0  0  0  0  0  0  0  0  0  0  0
  -15.7212   -4.1336  -25.5272 O   0  0  0  0  0  0  0  0  0  0  0  0
  -23.3715   -2.9015  -30.9294 O   0  0  0  0  0  0  0  0  0  0  0  0
  -22.6885   -3.8160  -23.4049 O   0  0  0  0  0  0  0  0  0  0  0  0
  -20.9137   -4.3859  -32.8235 O   0  0  0  0  0  0  0  0  0  0  0  0
  -23.9312   -2.5590  -28.1772 F   0  0  0  0  0  0  0  0  0  0  0  0
  -19.7846   -5.2434  -29.9439 H   0  0  0  0  0  0  0  0  0  0  0  0
  -20.1843   -6.3237  -27.1507 H   0  0  0  0  0  0  0  0  0  0  0  0
  -18.9019   -5.2605  -27.7248 H   0  0  0  0  0  0  0  0  0  0  0  0
  -17.8265   -6.8288  -35.7148 H   0  0  0  0  0  0  0  0  0  0  0  0
  -19.4160   -6.0425  -35.9779 H   0  0  0  0  0  0  0  0  0  0  0  0
  -17.8457   -6.4032  -33.3907 H   0  0  0  0  0  0  0  0  0  0  0  0
  -18.7012   -4.9500  -33.9336 H   0  0  0  0  0  0  0  0  0  0  0  0
  -24.2748   -3.4725  -26.4044 H   0  0  0  0  0  0  0  0  0  0  0  0
  -23.3885   -2.1618  -25.6651 H   0  0  0  0  0  0  0  0  0  0  0  0
  -21.6216   -5.4838  -25.0538 H   0  0  0  0  0  0  0  0  0  0  0  0
  -19.7989   -6.7392  -32.1262 H   0  0  0  0  0  0  0  0  0  0  0  0
  -24.5601   -3.0537  -23.8568 H   0  0  0  0  0  0  0  0  0  0  0  0
  -21.2896   -2.5442  -24.2100 H   0  0  0  0  0  0  0  0  0  0  0  0
  -23.7847   -5.8791  -24.7540 H   0  0  0  0  0  0  0  0  0  0  0  0
  -25.3662   -5.0969  -24.9391 H   0  0  0  0  0  0  0  0  0  0  0  0
  -24.7288   -5.4365  -23.3185 H   0  0  0  0  0  0  0  0  0  0  0  0
  -20.4650   -4.9986  -22.6114 H   0  0  0  0  0  0  0  0  0  0  0  0
  -20.6321   -3.3459  -21.9885 H   0  0  0  0  0  0  0  0  0  0  0  0
  -19.3887   -3.7163  -23.1988 H   0  0  0  0  0  0  0  0  0  0  0  0
  -22.0694   -6.0998  -32.8511 H   0  0  0  0  0  0  0  0  0  0  0  0
  -21.4435   -5.5692  -34.4338 H   0  0  0  0  0  0  0  0  0  0  0  0
  -17.3042   -2.3754  -26.3430 H   0  0  0  0  0  0  0  0  0  0  0  0
  -17.0342   -6.0606  -24.6216 H   0  0  0  0  0  0  0  0  0  0  0  0
  -20.7566   -8.6001  -33.4351 H   0  0  0  0  0  0  0  0  0  0  0  0
  1  2  2  0  0  0  0
  1  3  1  0  0  0  0
  2  5  1  0  0  0  0
  2  7  1  0  0  0  0
  3  4  2  0  0  0  0
  3 12  1  0  0  0  0
  4  6  1  0  0  0  0
  4 28  1  0  0  0  0
  5  6  2  0  0  0  0
  5 33  1  0  0  0  0
  6 36  1  0  0  0  0
  7 24  2  0  0  0  0
  7 35  1  0  0  0  0
  8 13  1  0  0  0  0
  8 27  1  0  0  0  0
  8 29  2  0  0  0  0
  9 20  1  0  0  0  0
  9 25  1  0  0  0  0
  9 30  2  0  0  0  0
 10 20  1  0  0  0  0
 10 26  1  0  0  0  0
 10 31  2  0  0  0  0
 11 25  1  0  0  0  0
 11 26  1  0  0  0  0
 11 32  2  0  0  0  0
 12 20  1  0  0  0  0
 13 14  1  0  0  0  0
 14 17  1  0  0  0  0
 15 18  1  0  0  0  0
 15 28  1  0  0  0  0
 16 19  1  0  0  0  0
 16 20  1  0  0  0  0
 16 28  1  0  0  0  0
 17 23  1  0  0  0  0
 17 27  1  0  0  0  0
 18 21  1  0  0  0  0
 18 34  1  0  0  0  0
 19 22  1  0  0  0  0
 19 34  1  0  0  0  0
 23 35  1  0  0  0  0
 24 33  1  0  0  0  0
  1 37  1  0  0  0  0
 12 38  1  0  0  0  0
 12 39  1  0  0  0  0
 13 40  1  0  0  0  0
 13 41  1  0  0  0  0
 14 42  1  0  0  0  0
 14 43  1  0  0  0  0
 15 44  1  0  0  0  0
 15 45  1  0  0  0  0
 16 46  1  0  0  0  0
 17 47  1  0  0  0  0
 18 48  1  0  0  0  0
 19 49  1  0  0  0  0
 21 50  1  0  0  0  0
 21 51  1  0  0  0  0
 21 52  1  0  0  0  0
 22 53  1  0  0  0  0
 22 54  1  0  0  0  0
 22 55  1  0  0  0  0
 23 56  1  0  0  0  0
 23 57  1  0  0  0  0
 25 58  1  0  0  0  0
 26 59  1  0  0  0  0
 27 60  1  0  0  0  0
M  END
> <SMILES>
CC1CN2C(C(C)O1)C1(Cc3cc4c(noc4c(c32)F)OC[C@@H]2CCC(=O)N2)C(=O)NC(=O)NC1=O

> <FORMATTED_ID>
H3D-006973

> <MOLFORMULA>
C23H24FN5O7

> <Exact Mass>
501.17

> <XLogP>
0.26

> <TPSA_NOPS>
152.4

> <s_m_source_file>
ligprep_h3d.sdf

> <i_m_source_file_index>
1112

> <i_lp_mmshare_version>
55123

> <i_f3d_flags>
0

> <s_epik_input>
Tz1DMVtOSF1DKD1PKVtOSF1DKD1PKUMxMltDQEBIXTNOKFtDSDJdW0NAQEhdKFtDSDNdKU9bQ0BIXTNbQ0gzXSljNGMoW0NIMl0yKVtjSF1jNWMoYzRGKW9uYzVPW0NIMl1bQ0BASF02W0NIMl1bQ0gyXUMoPU8pW05IXTY=

> <s_epik_cmdline>
J2VwaWtfcHl0aG9uJywgJy1waHQnLCAnMC41JywgJy1waCcsICc3LjUnLCAnLXRuJywgJzgnLCAnLW1hJywgJzUwMCcsICctaW1hZScsICc8aW5maWxlLm1hZT4nLCAnLW9tYWUnLCAnPG91dGZpbGUubWFlPic=

> <r_lp_tautomer_probability>
1

> <r_epik_Ionization_Penalty>
0.369127

> <r_epik_Ionization_Penalty_Charging>
0

> <r_epik_Ionization_Penalty_Neutral>
0.369127

> <r_epik_State_Penalty>
0.366447

> <r_epik_Charging_Adjusted_Penalty>
0.366447

> <i_epik_Tot_Q>
0

> <i_epik_Tot_abs_Q>
0

> <s_lp_Force_Field>
S-OPLS

> <r_lp_Energy>
37.0226

> <b_lp_Chiralities_Consistent>
1

> <s_lp_Variant>
ligprep_h3d.sdf:1112-1

> <ROCS_ShapeQuery>
_7L13

> <ROCS_TanimotoCombo>
0.776 

> <ROCS_ShapeTanimoto>
0.669 

> <ROCS_ColorTanimoto>
0.107 

> <ROCS_RefTversky>
0.811 

> <ROCS_RefColorTversky>
0.260 

> <ROCS_RefTverskyCombo>
1.070 

> <ROCS_FitTversky>
0.793 

> <ROCS_FitColorTversky>
0.155 

> <ROCS_FitTverskyCombo>
0.948 

> <ROCS_ColorScore>
-2.427

> <ROCS_Overlap>
1347.756

> <ROCS_Rank>
109                 

$$$$
ligprep_h3d.sdf:1332_356
  -OEChem-08212117123D

 53 58  0     1  0  0  0  0  0999 V2000
  -20.9559   -5.1207  -29.5061 C   0  0  0  0  0  0  0  0  0  0  0  0
  -21.7299   -4.3587  -30.3840 C   0  0  0  0  0  0  0  0  0  0  0  0
  -21.0868   -4.8993  -28.1136 C   0  0  0  0  0  0  0  0  0  0  0  0
  -22.0011   -3.9639  -27.5774 C   0  0  0  0  0  0  0  0  0  0  0  0
  -22.5942   -3.4252  -29.8554 C   0  0  0  0  0  0  0  0  0  0  0  0
  -22.7598   -3.1933  -28.4902 C   0  0  0  0  0  0  0  0  0  0  0  0
  -21.9120   -4.2347  -31.7740 C   0  0  0  0  0  0  0  0  0  0  0  0
  -21.2178   -5.0136  -32.8155 C   0  0  0  0  0  0  0  0  0  0  0  0
  -20.5074   -6.6002  -33.9961 C   0  0  0  0  0  0  0  0  0  0  0  0
  -19.2696   -6.1153  -24.9915 C   0  0  0  0  0  0  0  0  0  0  0  0
  -18.9583   -3.8475  -26.1390 C   0  0  0  0  0  0  0  0  0  0  0  0
  -17.1185   -5.4164  -25.5777 C   0  0  0  0  0  0  0  0  0  0  0  0
  -24.2676   -4.5018  -24.0593 C   0  0  0  0  0  0  0  0  0  0  0  0
  -20.2270   -5.7256  -27.1951 C   0  0  0  0  0  0  0  0  0  0  0  0
  -23.1513   -2.9061  -25.6473 C   0  0  0  0  0  0  0  0  0  0  0  0
  -23.4755   -3.2339  -24.1935 C   0  0  2  0  0  0  0  0  0  0  0  0
  -21.2427   -4.5015  -25.2244 C   0  0  2  0  0  0  0  0  0  0  0  0
  -21.0883   -3.5455  -24.0022 C   0  0  2  0  0  0  0  0  0  0  0  0
  -19.9053   -5.0064  -25.8618 C   0  0  1  0  0  0  0  0  0  0  0  0
  -20.3444   -7.9993  -34.4105 C   0  0  0  0  0  0  0  0  0  0  0  0
  -20.1352   -4.0011  -22.9038 C   0  0  0  0  0  0  0  0  0  0  0  0
  -22.8136   -3.2987  -32.0857 N   0  0  0  0  0  0  0  0  0  0  0  0
  -20.4685   -4.4643  -33.7426 N   0  0  0  0  0  0  0  0  0  0  0  0
  -20.0013   -5.5081  -34.5193 N   0  0  0  0  0  0  0  0  0  0  0  0
  -17.9634   -6.3462  -25.1357 N   0  5  0  0  0  0  0  0  0  0  0  0
  -17.6312   -4.1932  -25.9988 N   0  0  0  0  0  0  0  0  0  0  0  0
  -22.1269   -3.8056  -26.1963 N   0  0  3  0  0  0  0  0  0  0  0  0
  -23.9733   -5.4434  -25.0169 N   0  0  0  0  0  0  0  0  0  0  0  0
  -19.9883   -6.8306  -24.2906 O   0  0  0  0  0  0  0  0  0  0  0  0
  -19.3163   -2.7321  -26.5094 O   0  0  0  0  0  0  0  0  0  0  0  0
  -15.8980   -5.5921  -25.6277 O   0  0  0  0  0  0  0  0  0  0  0  0
  -25.0862   -4.6678  -23.1584 O   0  0  0  0  0  0  0  0  0  0  0  0
  -23.2428   -2.7860  -30.8670 O   0  0  0  0  0  0  0  0  0  0  0  0
  -21.2930   -6.3695  -32.9088 O   0  0  0  0  0  0  0  0  0  0  0  0
  -22.3490   -3.3545  -23.3444 O   0  0  0  0  0  0  0  0  0  0  0  0
  -23.5542   -2.1826  -28.1200 F   0  0  0  0  0  0  0  0  0  0  0  0
  -20.2593   -5.8632  -29.8848 H   0  0  0  0  0  0  0  0  0  0  0  0
  -20.7557   -6.6694  -27.0082 H   0  0  0  0  0  0  0  0  0  0  0  0
  -19.2917   -5.9823  -27.7096 H   0  0  0  0  0  0  0  0  0  0  0  0
  -24.0614   -3.0225  -26.2710 H   0  0  0  0  0  0  0  0  0  0  0  0
  -22.9295   -1.8294  -25.7031 H   0  0  0  0  0  0  0  0  0  0  0  0
  -24.1536   -2.4119  -23.7642 H   0  0  0  0  0  0  0  0  0  0  0  0
  -21.8202   -5.3741  -24.8891 H   0  0  0  0  0  0  0  0  0  0  0  0
  -20.7379   -2.5461  -24.3333 H   0  0  0  0  0  0  0  0  0  0  0  0
  -19.4789   -8.4715  -33.9110 H   0  0  0  0  0  0  0  0  0  0  0  0
  -21.2339   -8.6144  -34.1775 H   0  0  0  0  0  0  0  0  0  0  0  0
  -20.1896   -8.1006  -35.5014 H   0  0  0  0  0  0  0  0  0  0  0  0
  -20.4314   -4.9840  -22.5370 H   0  0  0  0  0  0  0  0  0  0  0  0
  -20.1558   -3.2934  -22.0750 H   0  0  0  0  0  0  0  0  0  0  0  0
  -19.1187   -4.0605  -23.2931 H   0  0  0  0  0  0  0  0  0  0  0  0
  -16.9504   -3.4848  -26.2565 H   0  0  0  0  0  0  0  0  0  0  0  0
  -23.2717   -5.2239  -25.7163 H   0  0  0  0  0  0  0  0  0  0  0  0
  -24.4296   -6.3492  -25.0523 H   0  0  0  0  0  0  0  0  0  0  0  0
  1  2  2  0  0  0  0
  1  3  1  0  0  0  0
  2  5  1  0  0  0  0
  2  7  1  0  0  0  0
  3  4  2  0  0  0  0
  3 14  1  0  0  0  0
  4  6  1  0  0  0  0
  4 27  1  0  0  0  0
  5  6  2  0  0  0  0
  5 33  1  0  0  0  0
  6 36  1  0  0  0  0
  7  8  1  0  0  0  0
  7 22  2  0  0  0  0
  8 23  2  0  0  0  0
  8 34  1  0  0  0  0
  9 20  1  0  0  0  0
  9 24  2  0  0  0  0
  9 34  1  0  0  0  0
 10 19  1  0  0  0  0
 10 25  1  0  0  0  0
 10 29  2  0  0  0  0
 11 19  1  0  0  0  0
 11 26  1  0  0  0  0
 11 30  2  0  0  0  0
 12 25  1  0  0  0  0
 12 26  1  0  0  0  0
 12 31  2  0  0  0  0
 13 16  1  0  0  0  0
 13 28  1  0  0  0  0
 13 32  2  0  0  0  0
 14 19  1  0  0  0  0
 15 16  1  0  0  0  0
 15 27  1  0  0  0  0
 16 35  1  0  0  0  0
 17 18  1  0  0  0  0
 17 19  1  0  0  0  0
 17 27  1  0  0  0  0
 18 21  1  0  0  0  0
 18 35  1  0  0  0  0
 22 33  1  0  0  0  0
 23 24  1  0  0  0  0
  1 37  1  0  0  0  0
 14 38  1  0  0  0  0
 14 39  1  0  0  0  0
 15 40  1  0  0  0  0
 15 41  1  0  0  0  0
 16 42  1  0  0  0  0
 17 43  1  0  0  0  0
 18 44  1  0  0  0  0
 20 45  1  0  0  0  0
 20 46  1  0  0  0  0
 20 47  1  0  0  0  0
 21 48  1  0  0  0  0
 21 49  1  0  0  0  0
 21 50  1  0  0  0  0
 26 51  1  0  0  0  0
 28 52  1  0  0  0  0
 28 53  1  0  0  0  0
M  CHG  1  25  -1
M  END
> <SMILES>
C[C@@H]1O[C@@H](CN2[C@H]1C1(Cc3cc4c(noc4c(c32)F)-c2nnc(o2)C)C(=O)NC(=O)NC1=O)C(=O)N

> <FORMATTED_ID>
H3D-009067

> <MOLFORMULA>
C21H18FN7O7

> <Exact Mass>
499.13

> <XLogP>
-0.44

> <TPSA_NOPS>
196.4

> <s_m_source_file>
ligprep_h3d.sdf

> <i_m_source_file_index>
1332

> <i_lp_mmshare_version>
55123

> <i_f3d_flags>
0

> <s_epik_input>
Tz1DMVtOSF1DKD1PKVtOSF1DKD1PKUMxMltDQEBIXTNOKFtDSDJdW0NAQEhdKEMoPU8pW05IMl0pT1tDQEhdM1tDSDNdKWM0YyhbQ0gyXTIpW2NIXWM1YyhjNEYpb25jNS1jNm5uYyhvNilbQ0gzXQ==

> <s_epik_cmdline>
J2VwaWtfcHl0aG9uJywgJy1waHQnLCAnMC41JywgJy1waCcsICc3LjUnLCAnLXRuJywgJzgnLCAnLW1hJywgJzUwMCcsICctaW1hZScsICc8aW5maWxlLm1hZT4nLCAnLW9tYWUnLCAnPG91dGZpbGUubWFlPic=

> <r_lp_tautomer_probability>
1

> <r_epik_Ionization_Penalty>
0.420097

> <r_epik_Ionization_Penalty_Charging>
0.42008

> <r_epik_Ionization_Penalty_Neutral>
1.60461e-05

> <r_epik_State_Penalty>
0.420716

> <r_epik_Charging_Adjusted_Penalty>
0.840797

> <i_epik_Tot_Q>
-1

> <i_epik_Tot_abs_Q>
1

> <s_lp_Force_Field>
S-OPLS

> <r_lp_Energy>
50.4663

> <b_lp_Chiralities_Consistent>
1

> <s_lp_Variant>
ligprep_h3d.sdf:1332-2

> <ROCS_ShapeQuery>
_7L13

> <ROCS_TanimotoCombo>
0.773 

> <ROCS_ShapeTanimoto>
0.659 

> <ROCS_ColorTanimoto>
0.113 

> <ROCS_RefTversky>
0.811 

> <ROCS_RefColorTversky>
0.294 

> <ROCS_RefTverskyCombo>
1.105 

> <ROCS_FitTversky>
0.779 

> <ROCS_FitColorTversky>
0.156 

> <ROCS_FitTverskyCombo>
0.935 

> <ROCS_ColorScore>
-2.786

> <ROCS_Overlap>
1348.952

> <ROCS_Rank>
110                 

$$$$
ligprep_h3d.sdf:2405_1911
  -OEChem-08212117123D

 99103  0     1  0  0  0  0  0999 V2000
  -24.5905   -5.3630  -22.5606 C   0  0  0  0  0  0  0  0  0  0  0  0
  -25.5626   -5.4819  -23.5537 C   0  0  0  0  0  0  0  0  0  0  0  0
  -23.5180   -4.4883  -22.7356 C   0  0  0  0  0  0  0  0  0  0  0  0
  -25.4623   -4.7264  -24.7219 C   0  0  0  0  0  0  0  0  0  0  0  0
  -23.4177   -3.7328  -23.9038 C   0  0  0  0  0  0  0  0  0  0  0  0
  -24.3898   -3.8518  -24.8970 C   0  0  0  0  0  0  0  0  0  0  0  0
  -22.0380   -4.0212  -30.0125 C   0  0  0  0  0  0  0  0  0  0  0  0
  -18.9063   -5.4820  -26.4107 C   0  0  0  0  0  0  0  0  0  0  0  0
  -21.7105   -4.1146  -28.7184 C   0  0  0  0  0  0  0  0  0  0  0  0
  -17.7420   -5.1888  -25.8009 C   0  0  0  0  0  0  0  0  0  0  0  0
  -22.3720   -3.2123  -27.7253 C   0  0  0  0  0  0  0  0  0  0  0  0
  -23.6739   -0.7733  -30.2038 C   0  0  0  0  0  0  0  0  0  0  0  0
  -20.0951   -3.9865  -36.0066 C   0  0  0  0  0  0  0  0  0  0  0  0
  -19.1072   -8.2971  -36.3595 C   0  0  0  0  0  0  0  0  0  0  0  0
  -21.0969   -3.6118  -34.9006 C   0  0  0  0  0  0  0  0  0  0  0  0
  -19.6287   -7.6920  -35.0442 C   0  0  0  0  0  0  0  0  0  0  0  0
  -20.1528   -5.5945  -31.0128 C   0  0  0  0  0  0  0  0  0  0  0  0
  -22.8480   -3.1713  -32.1258 C   0  0  0  0  0  0  0  0  0  0  0  0
  -21.4788   -4.8490  -31.1438 C   0  0  2  0  0  0  0  0  0  0  0  0
  -22.9976   -3.0037  -30.5974 C   0  0  2  0  0  0  0  0  0  0  0  0
  -20.0092   -5.4985  -36.1901 C   0  0  1  0  0  0  0  0  0  0  0  0
  -19.9101   -5.4848  -33.5814 C   0  0  1  0  0  0  0  0  0  0  0  0
  -19.3645   -6.0095  -37.5072 C   0  0  1  0  0  0  0  0  0  0  0  0
  -19.5692   -7.5436  -37.6092 C   0  0  2  0  0  0  0  0  0  0  0  0
  -19.8556   -6.3797  -32.3066 C   0  0  2  0  0  0  0  0  0  0  0  0
  -19.3730   -6.1675  -34.9229 C   0  0  1  0  0  0  0  0  0  0  0  0
  -21.2362   -4.6252  -33.7101 C   0  0  1  0  0  0  0  0  0  0  0  0
  -21.4601   -3.8407  -32.3271 C   0  0  1  0  0  0  0  0  0  0  0  0
  -16.8141   -6.2922  -25.3654 C   0  0  0  0  0  0  0  0  0  0  0  0
  -17.2459   -3.8061  -25.4858 C   0  0  0  0  0  0  0  0  0  0  0  0
  -23.1592    0.5744  -29.7976 C   0  0  0  0  0  0  0  0  0  0  0  0
  -19.9246   -5.3106  -38.7531 C   0  0  0  0  0  0  0  0  0  0  0  0
  -17.8206   -5.9623  -34.8853 C   0  0  0  0  0  0  0  0  0  0  0  0
  -22.4651   -5.5370  -34.0122 C   0  0  0  0  0  0  0  0  0  0  0  0
  -20.3708   -2.7310  -32.0996 C   0  0  0  0  0  0  0  0  0  0  0  0
  -24.2811   -3.0384  -26.1543 C   0  0  0  0  0  0  0  0  0  0  0  0
  -19.9529   -4.5304  -26.9223 C   0  0  0  0  0  0  0  0  0  0  0  0
  -20.6295   -5.0336  -28.2049 C   0  0  0  0  0  0  0  0  0  0  0  0
  -23.5349   -3.7278  -27.1813 N   0  0  0  0  0  0  0  0  0  0  0  0
  -21.8526   -2.1441  -27.4113 O   0  0  0  0  0  0  0  0  0  0  0  0
  -24.8447   -1.0076  -30.4708 O   0  0  0  0  0  0  0  0  0  0  0  0
  -20.9500   -7.8597  -37.8040 O   0  0  0  0  0  0  0  0  0  0  0  0
  -20.7816   -7.4582  -32.4041 O   0  0  0  0  0  0  0  0  0  0  0  0
  -22.6475   -1.6783  -30.2269 O   0  0  0  0  0  0  0  0  0  0  0  0
  -24.6694   -5.9503  -21.6504 H   0  0  0  0  0  0  0  0  0  0  0  0
  -26.3983   -6.1621  -23.4172 H   0  0  0  0  0  0  0  0  0  0  0  0
  -22.7615   -4.3946  -21.9621 H   0  0  0  0  0  0  0  0  0  0  0  0
  -26.2243   -4.8257  -25.4905 H   0  0  0  0  0  0  0  0  0  0  0  0
  -22.5785   -3.0540  -24.0315 H   0  0  0  0  0  0  0  0  0  0  0  0
  -19.1449   -6.5323  -26.5758 H   0  0  0  0  0  0  0  0  0  0  0  0
  -20.4218   -3.4849  -36.9230 H   0  0  0  0  0  0  0  0  0  0  0  0
  -19.1100   -3.5692  -35.7709 H   0  0  0  0  0  0  0  0  0  0  0  0
  -18.0126   -8.3347  -36.3415 H   0  0  0  0  0  0  0  0  0  0  0  0
  -19.4486   -9.3387  -36.4114 H   0  0  0  0  0  0  0  0  0  0  0  0
  -20.8168   -2.6120  -34.5622 H   0  0  0  0  0  0  0  0  0  0  0  0
  -22.0805   -3.4662  -35.3672 H   0  0  0  0  0  0  0  0  0  0  0  0
  -20.7030   -7.8970  -34.9738 H   0  0  0  0  0  0  0  0  0  0  0  0
  -19.1472   -8.2327  -34.2212 H   0  0  0  0  0  0  0  0  0  0  0  0
  -19.3315   -4.9018  -30.7983 H   0  0  0  0  0  0  0  0  0  0  0  0
  -20.2110   -6.2939  -30.1699 H   0  0  0  0  0  0  0  0  0  0  0  0
  -23.6562   -3.8239  -32.4708 H   0  0  0  0  0  0  0  0  0  0  0  0
  -22.9319   -2.2224  -32.6661 H   0  0  0  0  0  0  0  0  0  0  0  0
  -22.2524   -5.6103  -31.3044 H   0  0  0  0  0  0  0  0  0  0  0  0
  -24.0294   -3.1977  -30.2906 H   0  0  0  0  0  0  0  0  0  0  0  0
  -21.0496   -5.8270  -36.2738 H   0  0  0  0  0  0  0  0  0  0  0  0
  -19.1441   -4.7287  -33.3741 H   0  0  0  0  0  0  0  0  0  0  0  0
  -18.2893   -5.8016  -37.4992 H   0  0  0  0  0  0  0  0  0  0  0  0
  -19.0249   -7.9365  -38.4764 H   0  0  0  0  0  0  0  0  0  0  0  0
  -18.8572   -6.8220  -32.2144 H   0  0  0  0  0  0  0  0  0  0  0  0
  -16.1110   -6.5351  -26.1691 H   0  0  0  0  0  0  0  0  0  0  0  0
  -16.2266   -6.0204  -24.4821 H   0  0  0  0  0  0  0  0  0  0  0  0
  -17.3861   -7.1928  -25.1190 H   0  0  0  0  0  0  0  0  0  0  0  0
  -17.5557   -3.4397  -24.5055 H   0  0  0  0  0  0  0  0  0  0  0  0
  -17.6152   -3.0961  -26.2333 H   0  0  0  0  0  0  0  0  0  0  0  0
  -16.1509   -3.7868  -25.5055 H   0  0  0  0  0  0  0  0  0  0  0  0
  -23.2109    0.6791  -28.7111 H   0  0  0  0  0  0  0  0  0  0  0  0
  -23.7424    1.3575  -30.2886 H   0  0  0  0  0  0  0  0  0  0  0  0
  -22.1149    0.6724  -30.1080 H   0  0  0  0  0  0  0  0  0  0  0  0
  -20.9955   -5.4831  -38.8142 H   0  0  0  0  0  0  0  0  0  0  0  0
  -19.4420   -5.7109  -39.6403 H   0  0  0  0  0  0  0  0  0  0  0  0
  -19.7328   -4.2434  -38.6864 H   0  0  0  0  0  0  0  0  0  0  0  0
  -17.6292   -4.9067  -34.8011 H   0  0  0  0  0  0  0  0  0  0  0  0
  -17.4133   -6.3569  -35.7998 H   0  0  0  0  0  0  0  0  0  0  0  0
  -17.4381   -6.4936  -34.0311 H   0  0  0  0  0  0  0  0  0  0  0  0
  -22.5713   -6.2385  -33.2004 H   0  0  0  0  0  0  0  0  0  0  0  0
  -22.2809   -6.0532  -34.9407 H   0  0  0  0  0  0  0  0  0  0  0  0
  -23.3384   -4.9096  -34.0911 H   0  0  0  0  0  0  0  0  0  0  0  0
  -19.4080   -3.1878  -32.2375 H   0  0  0  0  0  0  0  0  0  0  0  0
  -20.4874   -2.3621  -31.0971 H   0  0  0  0  0  0  0  0  0  0  0  0
  -20.5416   -1.9550  -32.8231 H   0  0  0  0  0  0  0  0  0  0  0  0
  -25.2752   -2.8115  -26.5545 H   0  0  0  0  0  0  0  0  0  0  0  0
  -23.7819   -2.0828  -25.9622 H   0  0  0  0  0  0  0  0  0  0  0  0
  -20.7074   -4.2927  -26.1674 H   0  0  0  0  0  0  0  0  0  0  0  0
  -19.4524   -3.5797  -27.1463 H   0  0  0  0  0  0  0  0  0  0  0  0
  -19.8656   -5.1557  -28.9833 H   0  0  0  0  0  0  0  0  0  0  0  0
  -21.0365   -6.0383  -28.0291 H   0  0  0  0  0  0  0  0  0  0  0  0
  -23.8765   -4.6237  -27.5163 H   0  0  0  0  0  0  0  0  0  0  0  0
  -20.9950   -8.8201  -37.9200 H   0  0  0  0  0  0  0  0  0  0  0  0
  -20.6474   -8.0099  -31.6178 H   0  0  0  0  0  0  0  0  0  0  0  0
  1  2  2  0  0  0  0
  1  3  1  0  0  0  0
  2  4  1  0  0  0  0
  3  5  2  0  0  0  0
  4  6  2  0  0  0  0
  5  6  1  0  0  0  0
  6 36  1  0  0  0  0
  7  9  2  0  0  0  0
  7 19  1  0  0  0  0
  7 20  1  0  0  0  0
  8 10  2  0  0  0  0
  8 37  1  0  0  0  0
  9 11  1  0  0  0  0
  9 38  1  0  0  0  0
 10 29  1  0  0  0  0
 10 30  1  0  0  0  0
 11 39  1  0  0  0  0
 11 40  2  0  0  0  0
 12 31  1  0  0  0  0
 12 41  2  0  0  0  0
 12 44  1  0  0  0  0
 13 15  1  0  0  0  0
 13 21  1  0  0  0  0
 14 16  1  0  0  0  0
 14 24  1  0  0  0  0
 15 27  1  0  0  0  0
 16 26  1  0  0  0  0
 17 19  1  0  0  0  0
 17 25  1  0  0  0  0
 18 20  1  0  0  0  0
 18 28  1  0  0  0  0
 19 28  1  0  0  0  0
 20 44  1  0  0  0  0
 21 23  1  0  0  0  0
 21 26  1  0  0  0  0
 22 25  1  0  0  0  0
 22 26  1  0  0  0  0
 22 27  1  0  0  0  0
 23 24  1  0  0  0  0
 23 32  1  0  0  0  0
 24 42  1  0  0  0  0
 25 43  1  0  0  0  0
 26 33  1  0  0  0  0
 27 28  1  0  0  0  0
 27 34  1  0  0  0  0
 28 35  1  0  0  0  0
 36 39  1  0  0  0  0
 37 38  1  0  0  0  0
  1 45  1  0  0  0  0
  2 46  1  0  0  0  0
  3 47  1  0  0  0  0
  4 48  1  0  0  0  0
  5 49  1  0  0  0  0
  8 50  1  0  0  0  0
 13 51  1  0  0  0  0
 13 52  1  0  0  0  0
 14 53  1  0  0  0  0
 14 54  1  0  0  0  0
 15 55  1  0  0  0  0
 15 56  1  0  0  0  0
 16 57  1  0  0  0  0
 16 58  1  0  0  0  0
 17 59  1  0  0  0  0
 17 60  1  0  0  0  0
 18 61  1  0  0  0  0
 18 62  1  0  0  0  0
 19 63  1  0  0  0  0
 20 64  1  0  0  0  0
 21 65  1  0  0  0  0
 22 66  1  0  0  0  0
 23 67  1  0  0  0  0
 24 68  1  0  0  0  0
 25 69  1  0  0  0  0
 29 70  1  0  0  0  0
 29 71  1  0  0  0  0
 29 72  1  0  0  0  0
 30 73  1  0  0  0  0
 30 74  1  0  0  0  0
 30 75  1  0  0  0  0
 31 76  1  0  0  0  0
 31 77  1  0  0  0  0
 31 78  1  0  0  0  0
 32 79  1  0  0  0  0
 32 80  1  0  0  0  0
 32 81  1  0  0  0  0
 33 82  1  0  0  0  0
 33 83  1  0  0  0  0
 33 84  1  0  0  0  0
 34 85  1  0  0  0  0
 34 86  1  0  0  0  0
 34 87  1  0  0  0  0
 35 88  1  0  0  0  0
 35 89  1  0  0  0  0
 35 90  1  0  0  0  0
 36 91  1  0  0  0  0
 36 92  1  0  0  0  0
 37 93  1  0  0  0  0
 37 94  1  0  0  0  0
 38 95  1  0  0  0  0
 38 96  1  0  0  0  0
 39 97  1  0  0  0  0
 42 98  1  0  0  0  0
 43 99  1  0  0  0  0
M  END
> <SMILES>
C[C@@H]1[C@H](O)CC[C@@]2(C)[C@H]1CC[C@@]1(C)[C@H]2[C@H](O)C[C@H]2/C(=C(\CCC=C(C)C)C(=O)NCc3ccccc3)[C@H](C[C@@]21C)OC(=O)C

> <FORMATTED_ID>
H3D-005610

> <MOLFORMULA>
C38H55NO5

> <Exact Mass>
605.41

> <XLogP>
7.04

> <TPSA_NOPS>
95.9

> <s_m_source_file>
ligprep_h3d.sdf

> <i_m_source_file_index>
2405

> <i_lp_mmshare_version>
55123

> <i_f3d_flags>
0

> <s_epik_input>
W0NIMl0xW0NIMl1bQ0BASF0oW09IXSlbQ0BASF0oW0NIM10pW0NAQEhdKFtDQF0xMltDSDNdKVtDSDJdW0NIMl1bQ0BAXTMoW0NIM10pW0NASF0yW0NASF0oW09IXSlbQ0gyXVtDQEBIXTRbQ0BdMyhbQ0gzXSlbQ0gyXVtDQEhdKE9DKD1PKVtDSDNdKUNcND1DKFxbQ0gyXVtDSDJdW0NIXT1DKFtDSDNdKVtDSDNdKUMoPU8pW05IXVtDSDJdYzVbY0hdW2NIXVtjSF1bY0hdW2NIXTU=

> <s_epik_cmdline>
J2VwaWtfcHl0aG9uJywgJy1waHQnLCAnMC41JywgJy1waCcsICc3LjUnLCAnLXRuJywgJzgnLCAnLW1hJywgJzUwMCcsICctaW1hZScsICc8aW5maWxlLm1hZT4nLCAnLW9tYWUnLCAnPG91dGZpbGUubWFlPic=

> <r_lp_tautomer_probability>
1

> <r_epik_Ionization_Penalty>
1.64999e-06

> <r_epik_Ionization_Penalty_Charging>
0

> <r_epik_Ionization_Penalty_Neutral>
1.64999e-06

> <r_epik_State_Penalty>
-0

> <r_epik_Charging_Adjusted_Penalty>
0

> <i_epik_Tot_Q>
0

> <i_epik_Tot_abs_Q>
0

> <s_epik_Chemistry_Notes>
This compound has an ester and may undergo hydrolysis at high or low pH.

> <s_lp_Force_Field>
S-OPLS

> <r_lp_Energy>
82.7915

> <b_lp_Chiralities_Consistent>
1

> <s_lp_Variant>
ligprep_h3d.sdf:2405-1

> <ROCS_ShapeQuery>
_7L13

> <ROCS_TanimotoCombo>
0.707 

> <ROCS_ShapeTanimoto>
0.607 

> <ROCS_ColorTanimoto>
0.099 

> <ROCS_RefTversky>
0.810 

> <ROCS_RefColorTversky>
0.225 

> <ROCS_RefTverskyCombo>
1.035 

> <ROCS_FitTversky>
0.708 

> <ROCS_FitColorTversky>
0.151 

> <ROCS_FitTverskyCombo>
0.859 

> <ROCS_ColorScore>
-2.077

> <ROCS_Overlap>
1356.486

> <ROCS_Rank>
111                 

$$$$
ligprep_h3d.sdf:5012_1726
  -OEChem-08212117123D

 67 71  0     1  0  0  0  0  0999 V2000
  -18.2263   -7.2467  -37.2532 C   0  0  0  0  0  0  0  0  0  0  0  0
  -20.1379   -5.7763  -36.8485 C   0  0  0  0  0  0  0  0  0  0  0  0
  -19.2440   -7.0984  -35.0348 C   0  0  0  0  0  0  0  0  0  0  0  0
  -21.0992   -5.2459  -35.9882 C   0  0  0  0  0  0  0  0  0  0  0  0
  -20.2053   -6.5681  -34.1744 C   0  0  0  0  0  0  0  0  0  0  0  0
  -23.2819   -4.1740  -24.1980 C   0  0  0  0  0  0  0  0  0  0  0  0
  -25.4365   -4.8335  -25.0698 C   0  0  0  0  0  0  0  0  0  0  0  0
  -23.7772   -4.2744  -22.8979 C   0  0  0  0  0  0  0  0  0  0  0  0
  -25.9318   -4.9340  -23.7698 C   0  0  0  0  0  0  0  0  0  0  0  0
  -17.7726   -5.9145  -25.8879 C   0  0  0  0  0  0  0  0  0  0  0  0
  -17.1224   -3.6992  -26.5995 C   0  0  0  0  0  0  0  0  0  0  0  0
  -15.8777   -4.8232  -24.8604 C   0  0  0  0  0  0  0  0  0  0  0  0
  -19.2103   -6.7025  -36.3718 C   0  0  0  0  0  0  0  0  0  0  0  0
  -21.1329   -5.6418  -34.6511 C   0  0  0  0  0  0  0  0  0  0  0  0
  -17.9707   -4.8014  -26.7047 C   0  0  0  0  0  0  0  0  0  0  0  0
  -24.1116   -4.4535  -25.2840 C   0  0  0  0  0  0  0  0  0  0  0  0
  -25.1021   -4.6544  -22.6838 C   0  0  0  0  0  0  0  0  0  0  0  0
  -16.7261   -5.9254  -24.9657 C   0  0  0  0  0  0  0  0  0  0  0  0
  -16.0758   -3.7101  -25.6773 C   0  0  0  0  0  0  0  0  0  0  0  0
  -22.5549   -3.5358  -31.8006 C   0  0  0  0  0  0  0  0  0  0  0  0
  -22.7599   -3.8391  -29.3481 C   0  0  0  0  0  0  0  0  0  0  0  0
  -19.6578   -5.8406  -28.3539 C   0  0  0  0  0  0  0  0  0  0  0  0
  -19.6071   -3.7338  -28.3862 C   0  0  0  0  0  0  0  0  0  0  0  0
  -20.7907   -4.7489  -30.4401 C   0  0  0  0  0  0  0  0  0  0  0  0
  -22.0669   -4.7850  -28.3765 C   0  0  1  0  0  0  0  0  0  0  0  0
  -20.6285   -4.7782  -28.9177 C   0  0  0  0  0  0  0  0  0  0  0  0
  -22.1720   -5.0668  -33.7199 C   0  0  0  0  0  0  0  0  0  0  0  0
  -22.2325   -4.3791  -26.9239 C   0  0  0  0  0  0  0  0  0  0  0  0
  -21.7080   -3.7932  -33.0213 C   0  0  1  0  0  0  0  0  0  0  0  0
  -17.4270   -7.6888  -37.9691 N   0  0  0  0  0  0  0  0  0  0  0  0
  -19.0219   -4.7902  -27.6320 N   0  0  0  0  0  0  0  0  0  0  0  0
  -22.0487   -4.0228  -30.6063 N   0  0  0  0  0  0  0  0  0  0  0  0
  -23.6156   -4.3529  -26.5859 N   0  0  0  0  0  0  0  0  0  0  0  0
  -21.8449   -2.6281  -33.9302 N   0  3  0  0  0  0  0  0  0  0  0  0
  -23.6194   -2.9229  -31.8994 O   0  0  0  0  0  0  0  0  0  0  0  0
  -25.5778   -4.7509  -21.4353 F   0  0  0  0  0  0  0  0  0  0  0  0
  -16.5350   -6.9953  -24.1828 F   0  0  0  0  0  0  0  0  0  0  0  0
  -15.2600   -2.6525  -25.5776 F   0  0  0  0  0  0  0  0  0  0  0  0
  -20.1256   -5.4593  -37.8887 H   0  0  0  0  0  0  0  0  0  0  0  0
  -18.5268   -7.8183  -34.6474 H   0  0  0  0  0  0  0  0  0  0  0  0
  -21.8185   -4.5255  -36.3686 H   0  0  0  0  0  0  0  0  0  0  0  0
  -20.2228   -6.8808  -33.1337 H   0  0  0  0  0  0  0  0  0  0  0  0
  -22.2478   -3.8773  -24.3534 H   0  0  0  0  0  0  0  0  0  0  0  0
  -26.0918   -5.0533  -25.9088 H   0  0  0  0  0  0  0  0  0  0  0  0
  -23.1316   -4.0571  -22.0522 H   0  0  0  0  0  0  0  0  0  0  0  0
  -26.9633   -5.2295  -23.6025 H   0  0  0  0  0  0  0  0  0  0  0  0
  -18.4271   -6.7789  -25.9623 H   0  0  0  0  0  0  0  0  0  0  0  0
  -17.2672   -2.8270  -27.2318 H   0  0  0  0  0  0  0  0  0  0  0  0
  -15.0622   -4.8330  -24.1433 H   0  0  0  0  0  0  0  0  0  0  0  0
  -23.7954   -4.1463  -29.5224 H   0  0  0  0  0  0  0  0  0  0  0  0
  -22.7536   -2.7916  -29.0405 H   0  0  0  0  0  0  0  0  0  0  0  0
  -20.1012   -6.5907  -27.6855 H   0  0  0  0  0  0  0  0  0  0  0  0
  -18.9892   -6.3373  -29.0662 H   0  0  0  0  0  0  0  0  0  0  0  0
  -18.9279   -3.3031  -29.1240 H   0  0  0  0  0  0  0  0  0  0  0  0
  -20.0253   -2.9508  -27.7476 H   0  0  0  0  0  0  0  0  0  0  0  0
  -20.0006   -4.1648  -30.9237 H   0  0  0  0  0  0  0  0  0  0  0  0
  -20.8463   -5.7379  -30.9037 H   0  0  0  0  0  0  0  0  0  0  0  0
  -22.5240   -5.8179  -28.4951 H   0  0  0  0  0  0  0  0  0  0  0  0
  -22.4747   -5.8237  -32.9833 H   0  0  0  0  0  0  0  0  0  0  0  0
  -23.0788   -4.8651  -34.3067 H   0  0  0  0  0  0  0  0  0  0  0  0
  -21.7038   -5.1154  -26.3212 H   0  0  0  0  0  0  0  0  0  0  0  0
  -21.7914   -3.3901  -26.8134 H   0  0  0  0  0  0  0  0  0  0  0  0
  -20.6650   -3.8313  -32.7059 H   0  0  0  0  0  0  0  0  0  0  0  0
  -24.3081   -4.2530  -27.3327 H   0  0  0  0  0  0  0  0  0  0  0  0
  -22.7402   -2.6559  -34.4294 H   0  0  0  0  0  0  0  0  0  0  0  0
  -21.0936   -2.6183  -34.6283 H   0  0  0  0  0  0  0  0  0  0  0  0
  -21.8017   -1.7476  -33.4063 H   0  0  0  0  0  0  0  0  0  0  0  0
  1 13  1  0  0  0  0
  1 30  3  0  0  0  0
  2  4  1  0  0  0  0
  2 13  2  0  0  0  0
  3  5  2  0  0  0  0
  3 13  1  0  0  0  0
  4 14  2  0  0  0  0
  5 14  1  0  0  0  0
  6  8  1  0  0  0  0
  6 16  2  0  0  0  0
  7  9  2  0  0  0  0
  7 16  1  0  0  0  0
  8 17  2  0  0  0  0
  9 17  1  0  0  0  0
 10 15  2  0  0  0  0
 10 18  1  0  0  0  0
 11 15  1  0  0  0  0
 11 19  2  0  0  0  0
 12 18  2  0  0  0  0
 12 19  1  0  0  0  0
 14 27  1  0  0  0  0
 15 31  1  0  0  0  0
 16 33  1  0  0  0  0
 17 36  1  0  0  0  0
 18 37  1  0  0  0  0
 19 38  1  0  0  0  0
 20 29  1  0  0  0  0
 20 32  1  0  0  0  0
 20 35  2  0  0  0  0
 21 25  1  0  0  0  0
 21 32  1  0  0  0  0
 22 26  1  0  0  0  0
 22 31  1  0  0  0  0
 23 26  1  0  0  0  0
 23 31  1  0  0  0  0
 24 26  1  0  0  0  0
 24 32  1  0  0  0  0
 25 26  1  0  0  0  0
 25 28  1  0  0  0  0
 27 29  1  0  0  0  0
 28 33  1  0  0  0  0
 29 34  1  0  0  0  0
  2 39  1  0  0  0  0
  3 40  1  0  0  0  0
  4 41  1  0  0  0  0
  5 42  1  0  0  0  0
  6 43  1  0  0  0  0
  7 44  1  0  0  0  0
  8 45  1  0  0  0  0
  9 46  1  0  0  0  0
 10 47  1  0  0  0  0
 11 48  1  0  0  0  0
 12 49  1  0  0  0  0
 21 50  1  0  0  0  0
 21 51  1  0  0  0  0
 22 52  1  0  0  0  0
 22 53  1  0  0  0  0
 23 54  1  0  0  0  0
 23 55  1  0  0  0  0
 24 56  1  0  0  0  0
 24 57  1  0  0  0  0
 25 58  1  0  0  0  0
 27 59  1  0  0  0  0
 27 60  1  0  0  0  0
 28 61  1  0  0  0  0
 28 62  1  0  0  0  0
 29 63  1  0  0  0  0
 33 64  1  0  0  0  0
 34 65  1  0  0  0  0
 34 66  1  0  0  0  0
 34 67  1  0  0  0  0
M  CHG  1  34   1
M  END
> <SMILES>
N[C@H](Cc1ccc(cc1)C#N)C(=O)N1CC(CNc2ccc(cc2)F)C2(C1)CN(C2)c1cc(cc(c1)F)F

> <FORMATTED_ID>
H3D-009058

> <MOLFORMULA>
C29H28F3N5O

> <Exact Mass>
519.22

> <XLogP>
3.36

> <TPSA_NOPS>
85.4

> <s_m_source_file>
ligprep_h3d.sdf

> <i_m_source_file_index>
5012

> <i_lp_mmshare_version>
55123

> <i_f3d_flags>
0

> <s_epik_input>
W2NIXTFbY0hdYyhDI04pW2NIXVtjSF1jMVtDSDJdW0NAQEhdKFtOSDJdKUMoPU8pTihbQ0gyXTIpW0NIMl1bQ0BIXShbQ0gyXVtOSF1jM1tjSF1bY0hdYyhGKVtjSF1bY0hdMylDMjRbQ0gyXU4oW0NIMl00KWM1W2NIXWMoRilbY0hdYyhGKVtjSF01

> <s_epik_cmdline>
J2VwaWtfcHl0aG9uJywgJy1waHQnLCAnMC41JywgJy1waCcsICc3LjUnLCAnLXRuJywgJzgnLCAnLW1hJywgJzUwMCcsICctaW1hZScsICc8aW5maWxlLm1hZT4nLCAnLW9tYWUnLCAnPG91dGZpbGUubWFlPic=

> <r_epik_Ionization_Penalty>
0.489083

> <r_epik_Ionization_Penalty_Charging>
0.487105

> <r_epik_Ionization_Penalty_Neutral>
0.00197826

> <r_epik_State_Penalty>
0.492543

> <r_epik_Charging_Adjusted_Penalty>
0.979648

> <i_epik_Tot_Q>
1

> <i_epik_Tot_abs_Q>
1

> <s_lp_Force_Field>
S-OPLS

> <r_lp_Energy>
40.4556

> <b_lp_Chiralities_Consistent>
1

> <s_lp_Variant>
ligprep_h3d.sdf:5012-2

> <ROCS_ShapeQuery>
_7L13

> <ROCS_TanimotoCombo>
0.719 

> <ROCS_ShapeTanimoto>
0.661 

> <ROCS_ColorTanimoto>
0.058 

> <ROCS_RefTversky>
0.810 

> <ROCS_RefColorTversky>
0.115 

> <ROCS_RefTverskyCombo>
0.925 

> <ROCS_FitTversky>
0.782 

> <ROCS_FitColorTversky>
0.105 

> <ROCS_FitTverskyCombo>
0.887 

> <ROCS_ColorScore>
-1.043

> <ROCS_Overlap>
1348.206

> <ROCS_Rank>
112                 

$$$$
ligprep_h3d.sdf:1265_1457
  -OEChem-08212117123D

 72 77  0     0  0  0  0  0  0999 V2000
  -16.9164   -6.5854  -26.4087 C   0  0  0  0  0  0  0  0  0  0  0  0
  -15.9826   -5.5514  -26.4759 C   0  0  0  0  0  0  0  0  0  0  0  0
  -18.2804   -6.2975  -26.4557 C   0  0  0  0  0  0  0  0  0  0  0  0
  -20.0301   -3.8971  -32.2338 C   0  0  0  0  0  0  0  0  0  0  0  0
  -20.5251   -6.2548  -32.0520 C   0  0  0  0  0  0  0  0  0  0  0  0
  -19.4794   -4.1101  -33.4975 C   0  0  0  0  0  0  0  0  0  0  0  0
  -19.9745   -6.4679  -33.3157 C   0  0  0  0  0  0  0  0  0  0  0  0
  -16.4129   -4.2294  -26.5898 C   0  0  0  0  0  0  0  0  0  0  0  0
  -20.7214   -4.4620  -25.3807 C   0  0  0  0  0  0  0  0  0  0  0  0
  -23.0392   -4.2401  -28.8229 C   0  0  0  0  0  0  0  0  0  0  0  0
  -20.9023   -4.6092  -27.7871 C   0  0  0  0  0  0  0  0  0  0  0  0
  -20.5529   -4.9694  -31.5110 C   0  0  0  0  0  0  0  0  0  0  0  0
  -18.7107   -4.9755  -26.5696 C   0  0  0  0  0  0  0  0  0  0  0  0
  -20.1329   -4.6807  -26.6179 C   0  0  0  0  0  0  0  0  0  0  0  0
  -21.1238   -4.7484  -30.2001 C   0  0  0  0  0  0  0  0  0  0  0  0
  -19.4517   -5.3955  -34.0385 C   0  0  0  0  0  0  0  0  0  0  0  0
  -22.4769   -4.4553  -30.0836 C   0  0  0  0  0  0  0  0  0  0  0  0
  -20.3364   -4.8256  -29.0550 C   0  0  0  0  0  0  0  0  0  0  0  0
  -22.2754   -4.3113  -27.6612 C   0  0  0  0  0  0  0  0  0  0  0  0
  -17.7769   -3.9415  -26.6367 C   0  0  0  0  0  0  0  0  0  0  0  0
  -22.0716   -4.1769  -25.3578 C   0  0  0  0  0  0  0  0  0  0  0  0
  -22.7492   -3.9374  -24.0951 C   0  0  0  0  0  0  0  0  0  0  0  0
  -25.0267   -2.7067  -22.4162 C   0  0  0  0  0  0  0  0  0  0  0  0
  -24.9251   -5.1402  -21.7572 C   0  0  0  0  0  0  0  0  0  0  0  0
  -26.1327   -4.9654  -22.6244 C   0  0  0  0  0  0  0  0  0  0  0  0
  -18.2841   -7.3351  -37.0004 C   0  0  0  0  0  0  0  0  0  0  0  0
  -20.5934   -6.9301  -36.4512 C   0  0  0  0  0  0  0  0  0  0  0  0
  -18.6848   -8.6989  -37.5555 C   0  0  0  0  0  0  0  0  0  0  0  0
  -20.9395   -8.3039  -37.0182 C   0  0  0  0  0  0  0  0  0  0  0  0
  -24.9189   -4.0888  -22.8461 C   0  0  0  0  0  0  0  0  0  0  0  0
  -23.3682   -4.3598  -31.2811 C   0  0  0  0  0  0  0  0  0  0  0  0
  -18.8838   -5.1474  -29.2668 C   0  0  0  0  0  0  0  0  0  0  0  0
  -18.8588   -5.6249  -35.3987 C   0  0  0  0  0  0  0  0  0  0  0  0
  -22.8493   -4.0985  -26.4619 N   0  0  0  0  0  0  0  0  0  0  0  0
  -19.2167   -6.9354  -35.9373 N   0  0  0  0  0  0  0  0  0  0  0  0
  -24.1034   -4.2866  -24.0228 N   0  0  0  0  0  0  0  0  0  0  0  0
  -25.0190   -1.8513  -23.3443 O   0  5  0  0  0  0  0  0  0  0  0  0
  -22.1411   -3.4243  -23.1381 O   0  0  0  0  0  0  0  0  0  0  0  0
  -25.1139   -2.5460  -21.1665 O   0  0  0  0  0  0  0  0  0  0  0  0
  -20.0227   -8.6597  -38.0536 O   0  0  0  0  0  0  0  0  0  0  0  0
  -18.1740   -2.6651  -26.7447 F   0  0  0  0  0  0  0  0  0  0  0  0
  -16.5811   -7.6146  -26.3202 H   0  0  0  0  0  0  0  0  0  0  0  0
  -14.9206   -5.7755  -26.4392 H   0  0  0  0  0  0  0  0  0  0  0  0
  -18.9959   -7.1146  -26.4020 H   0  0  0  0  0  0  0  0  0  0  0  0
  -20.0438   -2.8893  -31.8255 H   0  0  0  0  0  0  0  0  0  0  0  0
  -20.9292   -7.1008  -31.5011 H   0  0  0  0  0  0  0  0  0  0  0  0
  -19.0734   -3.2690  -34.0531 H   0  0  0  0  0  0  0  0  0  0  0  0
  -19.9575   -7.4726  -33.7298 H   0  0  0  0  0  0  0  0  0  0  0  0
  -15.6859   -3.4243  -26.6420 H   0  0  0  0  0  0  0  0  0  0  0  0
  -20.1506   -4.5110  -24.4577 H   0  0  0  0  0  0  0  0  0  0  0  0
  -24.1016   -4.0113  -28.7467 H   0  0  0  0  0  0  0  0  0  0  0  0
  -24.9971   -4.8207  -20.7241 H   0  0  0  0  0  0  0  0  0  0  0  0
  -24.3285   -6.0336  -21.9007 H   0  0  0  0  0  0  0  0  0  0  0  0
  -26.3470   -5.7417  -23.3497 H   0  0  0  0  0  0  0  0  0  0  0  0
  -27.0164   -4.5285  -22.1740 H   0  0  0  0  0  0  0  0  0  0  0  0
  -17.2630   -7.3966  -36.6068 H   0  0  0  0  0  0  0  0  0  0  0  0
  -18.2924   -6.5949  -37.8111 H   0  0  0  0  0  0  0  0  0  0  0  0
  -20.7028   -6.1723  -37.2380 H   0  0  0  0  0  0  0  0  0  0  0  0
  -21.2985   -6.6899  -35.6472 H   0  0  0  0  0  0  0  0  0  0  0  0
  -18.0270   -8.9694  -38.3878 H   0  0  0  0  0  0  0  0  0  0  0  0
  -18.5997   -9.4852  -36.7958 H   0  0  0  0  0  0  0  0  0  0  0  0
  -20.9313   -9.0775  -36.2405 H   0  0  0  0  0  0  0  0  0  0  0  0
  -21.9430   -8.2850  -37.4550 H   0  0  0  0  0  0  0  0  0  0  0  0
  -23.3821   -3.3324  -31.6604 H   0  0  0  0  0  0  0  0  0  0  0  0
  -23.0253   -5.0255  -32.0816 H   0  0  0  0  0  0  0  0  0  0  0  0
  -24.3939   -4.6572  -31.0334 H   0  0  0  0  0  0  0  0  0  0  0  0
  -18.7368   -6.2302  -29.2420 H   0  0  0  0  0  0  0  0  0  0  0  0
  -18.5385   -4.7620  -30.2303 H   0  0  0  0  0  0  0  0  0  0  0  0
  -18.2678   -4.6853  -28.4901 H   0  0  0  0  0  0  0  0  0  0  0  0
  -19.2069   -4.8634  -36.1050 H   0  0  0  0  0  0  0  0  0  0  0  0
  -17.7659   -5.5633  -35.3664 H   0  0  0  0  0  0  0  0  0  0  0  0
  -24.5678   -4.6432  -24.8516 H   0  0  0  0  0  0  0  0  0  0  0  0
  1  2  2  0  0  0  0
  1  3  1  0  0  0  0
  2  8  1  0  0  0  0
  3 13  2  0  0  0  0
  4  6  1  0  0  0  0
  4 12  2  0  0  0  0
  5  7  2  0  0  0  0
  5 12  1  0  0  0  0
  6 16  2  0  0  0  0
  7 16  1  0  0  0  0
  8 20  2  0  0  0  0
  9 14  1  0  0  0  0
  9 21  2  0  0  0  0
 10 17  2  0  0  0  0
 10 19  1  0  0  0  0
 11 14  2  0  0  0  0
 11 18  1  0  0  0  0
 11 19  1  0  0  0  0
 12 15  1  0  0  0  0
 13 14  1  0  0  0  0
 13 20  1  0  0  0  0
 15 17  1  0  0  0  0
 15 18  2  0  0  0  0
 16 33  1  0  0  0  0
 17 31  1  0  0  0  0
 18 32  1  0  0  0  0
 19 34  2  0  0  0  0
 20 41  1  0  0  0  0
 21 22  1  0  0  0  0
 21 34  1  0  0  0  0
 22 36  1  0  0  0  0
 22 38  2  0  0  0  0
 23 30  1  0  0  0  0
 23 37  1  0  0  0  0
 23 39  2  0  0  0  0
 24 25  1  0  0  0  0
 24 30  1  0  0  0  0
 25 30  1  0  0  0  0
 26 28  1  0  0  0  0
 26 35  1  0  0  0  0
 27 29  1  0  0  0  0
 27 35  1  0  0  0  0
 28 40  1  0  0  0  0
 29 40  1  0  0  0  0
 30 36  1  0  0  0  0
 33 35  1  0  0  0  0
  1 42  1  0  0  0  0
  2 43  1  0  0  0  0
  3 44  1  0  0  0  0
  4 45  1  0  0  0  0
  5 46  1  0  0  0  0
  6 47  1  0  0  0  0
  7 48  1  0  0  0  0
  8 49  1  0  0  0  0
  9 50  1  0  0  0  0
 10 51  1  0  0  0  0
 24 52  1  0  0  0  0
 24 53  1  0  0  0  0
 25 54  1  0  0  0  0
 25 55  1  0  0  0  0
 26 56  1  0  0  0  0
 26 57  1  0  0  0  0
 27 58  1  0  0  0  0
 27 59  1  0  0  0  0
 28 60  1  0  0  0  0
 28 61  1  0  0  0  0
 29 62  1  0  0  0  0
 29 63  1  0  0  0  0
 31 64  1  0  0  0  0
 31 65  1  0  0  0  0
 31 66  1  0  0  0  0
 32 67  1  0  0  0  0
 32 68  1  0  0  0  0
 32 69  1  0  0  0  0
 33 70  1  0  0  0  0
 33 71  1  0  0  0  0
 36 72  1  0  0  0  0
M  CHG  1  37  -1
M  END
> <SMILES>
Cc1cc2nc(cc(c2c(c1-c1ccc(cc1)CN1CCOCC1)C)-c1ccccc1F)C(=O)NC1(CC1)C(=O)O

> <FORMATTED_ID>
H3D-008562

> <MOLFORMULA>
C33H32FN3O4

> <Exact Mass>
553.24

> <XLogP>
4.95

> <TPSA_NOPS>
91.8

> <s_m_source_file>
ligprep_h3d.sdf

> <i_m_source_file_index>
1265

> <i_lp_mmshare_version>
55123

> <i_f3d_flags>
0

> <s_epik_input>
RmMxW2NIXVtjSF1bY0hdW2NIXWMxLWMoW2NIXWMobjIpQyg9TylbTkhdQzMoW0NIMl1bQ0gyXTMpQyg9TylbT0hdKWMoYzI0KWMoW0NIM10pYyhjKFtDSDNdKVtjSF00KS1jNVtjSF1bY0hdYyhbY0hdW2NIXTUpW0NIMl1ONltDSDJdW0NIMl1PW0NIMl1bQ0gyXTY=

> <s_epik_cmdline>
J2VwaWtfcHl0aG9uJywgJy1waHQnLCAnMC41JywgJy1waCcsICc3LjUnLCAnLXRuJywgJzgnLCAnLW1hJywgJzUwMCcsICctaW1hZScsICc8aW5maWxlLm1hZT4nLCAnLW9tYWUnLCAnPG91dGZpbGUubWFlPic=

> <r_epik_Ionization_Penalty>
0.106486

> <r_epik_Ionization_Penalty_Charging>
0.000123838

> <r_epik_Ionization_Penalty_Neutral>
0.106363

> <r_epik_State_Penalty>
0.095414

> <r_epik_Charging_Adjusted_Penalty>
0.0955379

> <i_epik_Tot_Q>
-1

> <i_epik_Tot_abs_Q>
1

> <s_lp_Force_Field>
S-OPLS

> <r_lp_Energy>
94.2326

> <b_lp_Chiralities_Consistent>
1

> <s_lp_Variant>
ligprep_h3d.sdf:1265-1

> <ROCS_ShapeQuery>
_7L13

> <ROCS_TanimotoCombo>
0.714 

> <ROCS_ShapeTanimoto>
0.613 

> <ROCS_ColorTanimoto>
0.101 

> <ROCS_RefTversky>
0.810 

> <ROCS_RefColorTversky>
0.219 

> <ROCS_RefTverskyCombo>
1.030 

> <ROCS_FitTversky>
0.715 

> <ROCS_FitColorTversky>
0.158 

> <ROCS_FitTverskyCombo>
0.873 

> <ROCS_ColorScore>
-2.020

> <ROCS_Overlap>
1355.261

> <ROCS_Rank>
113                 

$$$$
ligprep_h3d.sdf:2643_1748
  -OEChem-08212117123D

 65 68  0     0  0  0  0  0  0999 V2000
  -19.9972   -5.3780  -25.7714 C   0  0  0  0  0  0  0  0  0  0  0  0
  -18.7255   -3.3711  -26.2102 C   0  0  0  0  0  0  0  0  0  0  0  0
  -18.8931   -6.1545  -26.1231 C   0  0  0  0  0  0  0  0  0  0  0  0
  -17.6214   -4.1477  -26.5619 C   0  0  0  0  0  0  0  0  0  0  0  0
  -22.6765   -3.5828  -32.1802 C   0  0  0  0  0  0  0  0  0  0  0  0
  -22.9142   -2.8500  -29.8904 C   0  0  0  0  0  0  0  0  0  0  0  0
  -25.4917   -5.1966  -24.9818 C   0  0  0  0  0  0  0  0  0  0  0  0
  -23.4653   -3.8835  -23.4792 C   0  0  0  0  0  0  0  0  0  0  0  0
  -19.9134   -3.9863  -25.8150 C   0  0  0  0  0  0  0  0  0  0  0  0
  -17.7052   -5.5394  -26.5183 C   0  0  0  0  0  0  0  0  0  0  0  0
  -23.1761   -2.6725  -31.2489 C   0  0  0  0  0  0  0  0  0  0  0  0
  -21.9150   -4.6707  -31.7530 C   0  0  0  0  0  0  0  0  0  0  0  0
  -24.3145   -4.7552  -25.6093 C   0  0  0  0  0  0  0  0  0  0  0  0
  -23.3394   -4.1154  -24.8492 C   0  0  0  0  0  0  0  0  0  0  0  0
  -22.1527   -3.9378  -29.4632 C   0  0  0  0  0  0  0  0  0  0  0  0
  -21.6531   -4.8481  -30.3945 C   0  0  0  0  0  0  0  0  0  0  0  0
  -25.6398   -4.9745  -23.6069 C   0  0  0  0  0  0  0  0  0  0  0  0
  -24.6434   -4.3293  -22.8709 C   0  0  0  0  0  0  0  0  0  0  0  0
  -22.7423   -4.2785  -26.9732 C   0  0  0  0  0  0  0  0  0  0  0  0
  -23.9919   -1.5111  -31.7067 C   0  0  0  0  0  0  0  0  0  0  0  0
  -17.8743   -6.2164  -34.1097 C   0  0  0  0  0  0  0  0  0  0  0  0
  -19.6683   -7.8674  -33.4666 C   0  0  0  0  0  0  0  0  0  0  0  0
  -20.0736   -6.2324  -35.3428 C   0  0  0  0  0  0  0  0  0  0  0  0
  -21.1038   -3.1478  -25.4354 C   0  0  0  0  0  0  0  0  0  0  0  0
  -21.3866   -5.6387  -32.7702 C   0  0  0  0  0  0  0  0  0  0  0  0
  -16.5246   -6.3703  -26.8926 C   0  0  0  0  0  0  0  0  0  0  0  0
  -19.3779   -6.4663  -34.0026 C   0  0  0  0  0  0  0  0  0  0  0  0
  -23.9259   -4.8475  -26.9261 N   0  0  0  0  0  0  0  0  0  0  0  0
  -22.3455   -3.8218  -25.7472 N   0  0  0  0  0  0  0  0  0  0  0  0
  -21.8966   -4.1046  -28.0844 N   0  0  0  0  0  0  0  0  0  0  0  0
  -19.9340   -5.4804  -33.0233 N   0  3  0  0  0  0  0  0  0  0  0  0
  -20.9089   -5.9138  -29.9800 O   0  0  0  0  0  0  0  0  0  0  0  0
  -26.7548   -5.3888  -22.9891 F   0  0  0  0  0  0  0  0  0  0  0  0
  -24.8182   -4.1338  -21.5562 F   0  0  0  0  0  0  0  0  0  0  0  0
  -16.7503   -7.7145  -26.8019 F   0  0  0  0  0  0  0  0  0  0  0  0
  -16.0970   -6.1669  -28.1738 F   0  0  0  0  0  0  0  0  0  0  0  0
  -15.4393   -6.1272  -26.1015 F   0  0  0  0  0  0  0  0  0  0  0  0
  -20.9188   -5.8659  -25.4650 H   0  0  0  0  0  0  0  0  0  0  0  0
  -18.6511   -2.2874  -26.2456 H   0  0  0  0  0  0  0  0  0  0  0  0
  -18.9672   -7.2380  -26.0845 H   0  0  0  0  0  0  0  0  0  0  0  0
  -16.6996   -3.6605  -26.8686 H   0  0  0  0  0  0  0  0  0  0  0  0
  -22.8817   -3.4442  -33.2392 H   0  0  0  0  0  0  0  0  0  0  0  0
  -23.3054   -2.1392  -29.1659 H   0  0  0  0  0  0  0  0  0  0  0  0
  -26.2715   -5.6991  -25.5449 H   0  0  0  0  0  0  0  0  0  0  0  0
  -22.6929   -3.3829  -22.9065 H   0  0  0  0  0  0  0  0  0  0  0  0
  -25.0557   -1.7775  -31.7313 H   0  0  0  0  0  0  0  0  0  0  0  0
  -23.8649   -0.6477  -31.0407 H   0  0  0  0  0  0  0  0  0  0  0  0
  -23.6917   -1.1843  -32.7109 H   0  0  0  0  0  0  0  0  0  0  0  0
  -17.6623   -5.2121  -34.4940 H   0  0  0  0  0  0  0  0  0  0  0  0
  -17.3925   -6.3056  -33.1297 H   0  0  0  0  0  0  0  0  0  0  0  0
  -17.3960   -6.9380  -34.7820 H   0  0  0  0  0  0  0  0  0  0  0  0
  -20.7461   -8.0502  -33.3884 H   0  0  0  0  0  0  0  0  0  0  0  0
  -19.2330   -8.0131  -32.4714 H   0  0  0  0  0  0  0  0  0  0  0  0
  -19.2486   -8.6336  -34.1280 H   0  0  0  0  0  0  0  0  0  0  0  0
  -21.1526   -6.4107  -35.2698 H   0  0  0  0  0  0  0  0  0  0  0  0
  -19.9298   -5.2007  -35.6829 H   0  0  0  0  0  0  0  0  0  0  0  0
  -19.6782   -6.8966  -36.1198 H   0  0  0  0  0  0  0  0  0  0  0  0
  -21.0992   -2.9158  -24.3634 H   0  0  0  0  0  0  0  0  0  0  0  0
  -21.0947   -2.1856  -25.9617 H   0  0  0  0  0  0  0  0  0  0  0  0
  -21.5385   -6.6743  -32.4476 H   0  0  0  0  0  0  0  0  0  0  0  0
  -21.8896   -5.5125  -33.7350 H   0  0  0  0  0  0  0  0  0  0  0  0
  -20.9085   -4.0963  -27.8524 H   0  0  0  0  0  0  0  0  0  0  0  0
  -19.7463   -4.5332  -33.3704 H   0  0  0  0  0  0  0  0  0  0  0  0
  -19.4190   -5.5699  -32.1404 H   0  0  0  0  0  0  0  0  0  0  0  0
  -20.8151   -5.8995  -29.0153 H   0  0  0  0  0  0  0  0  0  0  0  0
  1  3  1  0  0  0  0
  1  9  2  0  0  0  0
  2  4  2  0  0  0  0
  2  9  1  0  0  0  0
  3 10  2  0  0  0  0
  4 10  1  0  0  0  0
  5 11  2  0  0  0  0
  5 12  1  0  0  0  0
  6 11  1  0  0  0  0
  6 15  2  0  0  0  0
  7 13  2  0  0  0  0
  7 17  1  0  0  0  0
  8 14  2  0  0  0  0
  8 18  1  0  0  0  0
  9 24  1  0  0  0  0
 10 26  1  0  0  0  0
 11 20  1  0  0  0  0
 12 16  2  0  0  0  0
 12 25  1  0  0  0  0
 13 14  1  0  0  0  0
 13 28  1  0  0  0  0
 14 29  1  0  0  0  0
 15 16  1  0  0  0  0
 15 30  1  0  0  0  0
 16 32  1  0  0  0  0
 17 18  2  0  0  0  0
 17 33  1  0  0  0  0
 18 34  1  0  0  0  0
 19 28  2  0  0  0  0
 19 29  1  0  0  0  0
 19 30  1  0  0  0  0
 21 27  1  0  0  0  0
 22 27  1  0  0  0  0
 23 27  1  0  0  0  0
 24 29  1  0  0  0  0
 25 31  1  0  0  0  0
 26 35  1  0  0  0  0
 26 36  1  0  0  0  0
 26 37  1  0  0  0  0
 27 31  1  0  0  0  0
  1 38  1  0  0  0  0
  2 39  1  0  0  0  0
  3 40  1  0  0  0  0
  4 41  1  0  0  0  0
  5 42  1  0  0  0  0
  6 43  1  0  0  0  0
  7 44  1  0  0  0  0
  8 45  1  0  0  0  0
 20 46  1  0  0  0  0
 20 47  1  0  0  0  0
 20 48  1  0  0  0  0
 21 49  1  0  0  0  0
 21 50  1  0  0  0  0
 21 51  1  0  0  0  0
 22 52  1  0  0  0  0
 22 53  1  0  0  0  0
 22 54  1  0  0  0  0
 23 55  1  0  0  0  0
 23 56  1  0  0  0  0
 23 57  1  0  0  0  0
 24 58  1  0  0  0  0
 24 59  1  0  0  0  0
 25 60  1  0  0  0  0
 25 61  1  0  0  0  0
 30 62  1  0  0  0  0
 31 63  1  0  0  0  0
 31 64  1  0  0  0  0
 32 65  1  0  0  0  0
M  CHG  1  31   1
M  END
> <SMILES>
Cc1cc(c(c(c1)Nc1nc2cc(c(cc2n1Cc1ccc(cc1)C(F)(F)F)F)F)O)CNC(C)(C)C

> <FORMATTED_ID>
H3D-007331

> <MOLFORMULA>
C27H27F5N4O

> <Exact Mass>
518.21

> <XLogP>
8.38

> <TPSA_NOPS>
62.1

> <s_m_source_file>
ligprep_h3d.sdf

> <i_m_source_file_index>
2643

> <i_lp_mmshare_version>
55123

> <i_f3d_flags>
0

> <s_epik_input>
W0NIM11DKFtDSDNdKShbQ0gzXSlbTkhdW0NIMl1jKFtjSF1jMVtDSDNdKWMoW09IXSljKFtjSF0xKVtOSF1jKG4yKW4oYyhjMjMpW2NIXWMoRiljKEYpW2NIXTMpW0NIMl1jNFtjSF1bY0hdYyhDKEYpKEYpRilbY0hdW2NIXTQ=

> <s_epik_cmdline>
J2VwaWtfcHl0aG9uJywgJy1waHQnLCAnMC41JywgJy1waCcsICc3LjUnLCAnLXRuJywgJzgnLCAnLW1hJywgJzUwMCcsICctaW1hZScsICc8aW5maWxlLm1hZT4nLCAnLW9tYWUnLCAnPG91dGZpbGUubWFlPic=

> <r_epik_Ionization_Penalty>
0.0352413

> <r_epik_Ionization_Penalty_Charging>
0.0121388

> <r_epik_Ionization_Penalty_Neutral>
0.0231025

> <r_epik_State_Penalty>
0.0228047

> <r_epik_Charging_Adjusted_Penalty>
0.0349435

> <i_epik_Tot_Q>
1

> <i_epik_Tot_abs_Q>
1

> <s_lp_Force_Field>
S-OPLS

> <r_lp_Energy>
37.268

> <b_lp_Chiralities_Consistent>
1

> <s_lp_Variant>
ligprep_h3d.sdf:2643-1

> <ROCS_ShapeQuery>
_7L13

> <ROCS_TanimotoCombo>
0.774 

> <ROCS_ShapeTanimoto>
0.669 

> <ROCS_ColorTanimoto>
0.104 

> <ROCS_RefTversky>
0.810 

> <ROCS_RefColorTversky>
0.208 

> <ROCS_RefTverskyCombo>
1.018 

> <ROCS_FitTversky>
0.794 

> <ROCS_FitColorTversky>
0.173 

> <ROCS_FitTverskyCombo>
0.967 

> <ROCS_ColorScore>
-1.894

> <ROCS_Overlap>
1346.583

> <ROCS_Rank>
114                 

$$$$
ligprep_h3d.sdf:2377_1853
  -OEChem-08212117123D

101105  0     1  0  0  0  0  0999 V2000
  -25.9549   -5.1489  -23.9236 C   0  0  0  0  0  0  0  0  0  0  0  0
  -25.4802   -4.2761  -24.8963 C   0  0  0  0  0  0  0  0  0  0  0  0
  -25.0876   -5.5247  -22.9105 C   0  0  0  0  0  0  0  0  0  0  0  0
  -23.3838   -4.2478  -23.7736 C   0  0  0  0  0  0  0  0  0  0  0  0
  -24.1712   -3.8123  -24.8272 C   0  0  0  0  0  0  0  0  0  0  0  0
  -21.7321   -3.9821  -29.8755 C   0  0  0  0  0  0  0  0  0  0  0  0
  -18.5675   -5.4133  -26.2449 C   0  0  0  0  0  0  0  0  0  0  0  0
  -21.2636   -3.9515  -28.6224 C   0  0  0  0  0  0  0  0  0  0  0  0
  -17.3665   -4.9943  -25.8027 C   0  0  0  0  0  0  0  0  0  0  0  0
  -21.8847   -3.0230  -27.6274 C   0  0  0  0  0  0  0  0  0  0  0  0
  -23.6270   -0.8811  -30.1100 C   0  0  0  0  0  0  0  0  0  0  0  0
  -20.4417   -4.2784  -36.0360 C   0  0  0  0  0  0  0  0  0  0  0  0
  -19.1641   -8.5239  -36.1949 C   0  0  0  0  0  0  0  0  0  0  0  0
  -21.3473   -3.8897  -34.8545 C   0  0  0  0  0  0  0  0  0  0  0  0
  -19.5893   -7.8562  -34.8753 C   0  0  0  0  0  0  0  0  0  0  0  0
  -19.8465   -5.4931  -30.9668 C   0  0  0  0  0  0  0  0  0  0  0  0
  -22.8245   -3.3579  -31.9399 C   0  0  0  0  0  0  0  0  0  0  0  0
  -21.2329   -4.8544  -31.0014 C   0  0  2  0  0  0  0  0  0  0  0  0
  -22.8245   -3.0827  -30.4198 C   0  0  2  0  0  0  0  0  0  0  0  0
  -20.2583   -5.7904  -36.1220 C   0  0  1  0  0  0  0  0  0  0  0  0
  -19.8856   -5.5668  -33.5478 C   0  0  1  0  0  0  0  0  0  0  0  0
  -19.7185   -6.3561  -37.4637 C   0  0  1  0  0  0  0  0  0  0  0  0
  -19.8128   -7.9040  -37.4350 C   0  0  2  0  0  0  0  0  0  0  0  0
  -19.6273   -6.3539  -32.2277 C   0  0  2  0  0  0  0  0  0  0  0  0
  -19.4417   -6.3127  -34.8898 C   0  0  1  0  0  0  0  0  0  0  0  0
  -21.2808   -4.8145  -33.5881 C   0  0  1  0  0  0  0  0  0  0  0  0
  -21.4178   -3.9424  -32.2469 C   0  0  1  0  0  0  0  0  0  0  0  0
  -16.3073   -5.9941  -25.4201 C   0  0  0  0  0  0  0  0  0  0  0  0
  -16.9498   -3.5605  -25.6353 C   0  0  0  0  0  0  0  0  0  0  0  0
  -23.3316    0.2679  -29.1943 C   0  0  0  0  0  0  0  0  0  0  0  0
  -20.4597   -5.7971  -38.6853 C   0  0  0  0  0  0  0  0  0  0  0  0
  -17.9147   -5.9973  -35.0392 C   0  0  0  0  0  0  0  0  0  0  0  0
  -22.4600   -5.8307  -33.6875 C   0  0  0  0  0  0  0  0  0  0  0  0
  -20.4003   -2.7451  -32.2198 C   0  0  0  0  0  0  0  0  0  0  0  0
  -24.7037   -1.9498  -26.4519 C   0  0  0  0  0  0  0  0  0  0  0  0
  -19.7410   -4.5785  -26.6791 C   0  0  0  0  0  0  0  0  0  0  0  0
  -20.0661   -4.7500  -28.1693 C   0  0  0  0  0  0  0  0  0  0  0  0
  -23.6250   -2.8611  -25.8700 C   0  0  2  0  0  0  0  0  0  0  0  0
  -23.8097   -5.0951  -22.8101 N   0  0  0  0  0  0  0  0  0  0  0  0
  -22.9400   -3.5746  -26.9230 N   0  0  0  0  0  0  0  0  0  0  0  0
  -21.4199   -1.9000  -27.4484 O   0  0  0  0  0  0  0  0  0  0  0  0
  -24.6904   -1.0349  -30.6955 O   0  0  0  0  0  0  0  0  0  0  0  0
  -21.1775   -8.3300  -37.4527 O   0  0  0  0  0  0  0  0  0  0  0  0
  -20.4716   -7.4987  -32.1462 O   0  0  0  0  0  0  0  0  0  0  0  0
  -22.5415   -1.7114  -30.1838 O   0  0  0  0  0  0  0  0  0  0  0  0
  -26.9717   -5.5231  -23.9573 H   0  0  0  0  0  0  0  0  0  0  0  0
  -26.1367   -3.9629  -25.7036 H   0  0  0  0  0  0  0  0  0  0  0  0
  -25.4097   -6.2039  -22.1281 H   0  0  0  0  0  0  0  0  0  0  0  0
  -22.3545   -3.9196  -23.6672 H   0  0  0  0  0  0  0  0  0  0  0  0
  -18.7384   -6.4871  -26.3156 H   0  0  0  0  0  0  0  0  0  0  0  0
  -20.9015   -3.8737  -36.9433 H   0  0  0  0  0  0  0  0  0  0  0  0
  -19.4728   -3.7763  -35.9410 H   0  0  0  0  0  0  0  0  0  0  0  0
  -18.0741   -8.4834  -36.2960 H   0  0  0  0  0  0  0  0  0  0  0  0
  -19.4269   -9.5877  -36.1357 H   0  0  0  0  0  0  0  0  0  0  0  0
  -21.1118   -2.8495  -34.6199 H   0  0  0  0  0  0  0  0  0  0  0  0
  -22.3830   -3.8499  -35.2180 H   0  0  0  0  0  0  0  0  0  0  0  0
  -20.6309   -8.1295  -34.6718 H   0  0  0  0  0  0  0  0  0  0  0  0
  -18.9830   -8.2962  -34.0751 H   0  0  0  0  0  0  0  0  0  0  0  0
  -19.0635   -4.7302  -30.8937 H   0  0  0  0  0  0  0  0  0  0  0  0
  -19.7606   -6.1271  -30.0759 H   0  0  0  0  0  0  0  0  0  0  0  0
  -23.6114   -4.0902  -32.1466 H   0  0  0  0  0  0  0  0  0  0  0  0
  -23.0386   -2.4621  -32.5324 H   0  0  0  0  0  0  0  0  0  0  0  0
  -21.9575   -5.6780  -31.0215 H   0  0  0  0  0  0  0  0  0  0  0  0
  -23.7999   -3.3238  -29.9875 H   0  0  0  0  0  0  0  0  0  0  0  0
  -21.2729   -6.1963  -36.0666 H   0  0  0  0  0  0  0  0  0  0  0  0
  -19.1632   -4.7453  -33.4802 H   0  0  0  0  0  0  0  0  0  0  0  0
  -18.6679   -6.0737  -37.5897 H   0  0  0  0  0  0  0  0  0  0  0  0
  -19.3342   -8.3243  -38.3278 H   0  0  0  0  0  0  0  0  0  0  0  0
  -18.5934   -6.7168  -32.2163 H   0  0  0  0  0  0  0  0  0  0  0  0
  -15.6875   -6.2405  -26.2886 H   0  0  0  0  0  0  0  0  0  0  0  0
  -15.6428   -5.6195  -24.6343 H   0  0  0  0  0  0  0  0  0  0  0  0
  -16.7712   -6.9147  -25.0509 H   0  0  0  0  0  0  0  0  0  0  0  0
  -17.1696   -3.1505  -24.6481 H   0  0  0  0  0  0  0  0  0  0  0  0
  -17.4616   -2.9331  -26.3727 H   0  0  0  0  0  0  0  0  0  0  0  0
  -15.8701   -3.4629  -25.7917 H   0  0  0  0  0  0  0  0  0  0  0  0
  -23.6184    0.0104  -28.1718 H   0  0  0  0  0  0  0  0  0  0  0  0
  -23.8672    1.1587  -29.5322 H   0  0  0  0  0  0  0  0  0  0  0  0
  -22.2586    0.4796  -29.2126 H   0  0  0  0  0  0  0  0  0  0  0  0
  -21.5143   -6.0482  -38.6150 H   0  0  0  0  0  0  0  0  0  0  0  0
  -20.0438   -6.2305  -39.5905 H   0  0  0  0  0  0  0  0  0  0  0  0
  -20.3456   -4.7172  -38.7150 H   0  0  0  0  0  0  0  0  0  0  0  0
  -17.7982   -4.9276  -35.0507 H   0  0  0  0  0  0  0  0  0  0  0  0
  -17.5768   -6.4325  -35.9636 H   0  0  0  0  0  0  0  0  0  0  0  0
  -17.4040   -6.4326  -34.1978 H   0  0  0  0  0  0  0  0  0  0  0  0
  -22.4249   -6.4726  -32.8219 H   0  0  0  0  0  0  0  0  0  0  0  0
  -22.3353   -6.4034  -34.5924 H   0  0  0  0  0  0  0  0  0  0  0  0
  -23.3829   -5.2738  -33.7124 H   0  0  0  0  0  0  0  0  0  0  0  0
  -19.4248   -3.1428  -32.4316 H   0  0  0  0  0  0  0  0  0  0  0  0
  -20.4387   -2.3083  -31.2387 H   0  0  0  0  0  0  0  0  0  0  0  0
  -20.7064   -2.0415  -32.9722 H   0  0  0  0  0  0  0  0  0  0  0  0
  -25.4984   -2.5337  -26.9289 H   0  0  0  0  0  0  0  0  0  0  0  0
  -25.1577   -1.3399  -25.6627 H   0  0  0  0  0  0  0  0  0  0  0  0
  -24.2974   -1.2586  -27.1989 H   0  0  0  0  0  0  0  0  0  0  0  0
  -20.6336   -4.7648  -26.0755 H   0  0  0  0  0  0  0  0  0  0  0  0
  -19.4810   -3.5271  -26.5014 H   0  0  0  0  0  0  0  0  0  0  0  0
  -19.1916   -4.4475  -28.7593 H   0  0  0  0  0  0  0  0  0  0  0  0
  -20.2157   -5.8160  -28.3868 H   0  0  0  0  0  0  0  0  0  0  0  0
  -22.8619   -2.2219  -25.4090 H   0  0  0  0  0  0  0  0  0  0  0  0
  -23.2443   -4.5155  -27.1546 H   0  0  0  0  0  0  0  0  0  0  0  0
  -21.1596   -9.2973  -37.4957 H   0  0  0  0  0  0  0  0  0  0  0  0
  -20.2126   -7.9768  -31.3431 H   0  0  0  0  0  0  0  0  0  0  0  0
  1  2  1  0  0  0  0
  1  3  2  0  0  0  0
  2  5  2  0  0  0  0
  3 39  1  0  0  0  0
  4  5  1  0  0  0  0
  4 39  2  0  0  0  0
  5 38  1  0  0  0  0
  6  8  2  0  0  0  0
  6 18  1  0  0  0  0
  6 19  1  0  0  0  0
  7  9  2  0  0  0  0
  7 36  1  0  0  0  0
  8 10  1  0  0  0  0
  8 37  1  0  0  0  0
  9 28  1  0  0  0  0
  9 29  1  0  0  0  0
 10 40  1  0  0  0  0
 10 41  2  0  0  0  0
 11 30  1  0  0  0  0
 11 42  2  0  0  0  0
 11 45  1  0  0  0  0
 12 14  1  0  0  0  0
 12 20  1  0  0  0  0
 13 15  1  0  0  0  0
 13 23  1  0  0  0  0
 14 26  1  0  0  0  0
 15 25  1  0  0  0  0
 16 18  1  0  0  0  0
 16 24  1  0  0  0  0
 17 19  1  0  0  0  0
 17 27  1  0  0  0  0
 18 27  1  0  0  0  0
 19 45  1  0  0  0  0
 20 22  1  0  0  0  0
 20 25  1  0  0  0  0
 21 24  1  0  0  0  0
 21 25  1  0  0  0  0
 21 26  1  0  0  0  0
 22 23  1  0  0  0  0
 22 31  1  0  0  0  0
 23 43  1  0  0  0  0
 24 44  1  0  0  0  0
 25 32  1  0  0  0  0
 26 27  1  0  0  0  0
 26 33  1  0  0  0  0
 27 34  1  0  0  0  0
 35 38  1  0  0  0  0
 36 37  1  0  0  0  0
 38 40  1  0  0  0  0
  1 46  1  0  0  0  0
  2 47  1  0  0  0  0
  3 48  1  0  0  0  0
  4 49  1  0  0  0  0
  7 50  1  0  0  0  0
 12 51  1  0  0  0  0
 12 52  1  0  0  0  0
 13 53  1  0  0  0  0
 13 54  1  0  0  0  0
 14 55  1  0  0  0  0
 14 56  1  0  0  0  0
 15 57  1  0  0  0  0
 15 58  1  0  0  0  0
 16 59  1  0  0  0  0
 16 60  1  0  0  0  0
 17 61  1  0  0  0  0
 17 62  1  0  0  0  0
 18 63  1  0  0  0  0
 19 64  1  0  0  0  0
 20 65  1  0  0  0  0
 21 66  1  0  0  0  0
 22 67  1  0  0  0  0
 23 68  1  0  0  0  0
 24 69  1  0  0  0  0
 28 70  1  0  0  0  0
 28 71  1  0  0  0  0
 28 72  1  0  0  0  0
 29 73  1  0  0  0  0
 29 74  1  0  0  0  0
 29 75  1  0  0  0  0
 30 76  1  0  0  0  0
 30 77  1  0  0  0  0
 30 78  1  0  0  0  0
 31 79  1  0  0  0  0
 31 80  1  0  0  0  0
 31 81  1  0  0  0  0
 32 82  1  0  0  0  0
 32 83  1  0  0  0  0
 32 84  1  0  0  0  0
 33 85  1  0  0  0  0
 33 86  1  0  0  0  0
 33 87  1  0  0  0  0
 34 88  1  0  0  0  0
 34 89  1  0  0  0  0
 34 90  1  0  0  0  0
 35 91  1  0  0  0  0
 35 92  1  0  0  0  0
 35 93  1  0  0  0  0
 36 94  1  0  0  0  0
 36 95  1  0  0  0  0
 37 96  1  0  0  0  0
 37 97  1  0  0  0  0
 38 98  1  0  0  0  0
 40 99  1  0  0  0  0
 43100  1  0  0  0  0
 44101  1  0  0  0  0
M  END
> <SMILES>
CC(NC(=O)/C(=C/1\[C@H](C[C@@]2(C)[C@H]1C[C@@H](O)[C@H]1[C@@]3(C)CC[C@@H](O)[C@@H](C)[C@@H]3CC[C@@]12C)OC(=O)C)CCC=C(C)C)c1cccnc1

> <FORMATTED_ID>
H3D-005466

> <MOLFORMULA>
C38H56N2O5

> <Exact Mass>
620.42

> <XLogP>
6.24

> <TPSA_NOPS>
108.7

> <s_m_source_file>
ligprep_h3d.sdf

> <i_m_source_file_index>
2377

> <i_lp_mmshare_version>
55123

> <i_f3d_flags>
0

> <s_epik_input>
W2NIXTFuW2NIXVtjSF1bY0hdYzFbQ0BIXShbQ0gzXSlbTkhdQyg9TykvQyhbQ0gyXVtDSDJdW0NIXT1DKFtDSDNdKVtDSDNdKT1DKFxbQ0BIXShbQ0gyXTIpT0MoPU8pW0NIM10pW0NAQEhdKFtDQF0yM1tDSDNdKVtDSDJdW0NAQEhdKFtPSF0pW0NASF00W0NAXTUoW0NIM10pW0NASF0oW0NASF0oW0NIM10pW0NASF0oW09IXSlbQ0gyXVtDSDJdNSlbQ0gyXVtDSDJdW0NAXTM0W0NIM10=

> <s_epik_cmdline>
J2VwaWtfcHl0aG9uJywgJy1waHQnLCAnMC41JywgJy1waCcsICc3LjUnLCAnLXRuJywgJzgnLCAnLW1hJywgJzUwMCcsICctaW1hZScsICc8aW5maWxlLm1hZT4nLCAnLW9tYWUnLCAnPG91dGZpbGUubWFlPic=

> <r_lp_tautomer_probability>
1

> <r_epik_Ionization_Penalty>
0.0038104

> <r_epik_Ionization_Penalty_Charging>
0

> <r_epik_Ionization_Penalty_Neutral>
0.0038104

> <r_epik_State_Penalty>
-0

> <r_epik_Charging_Adjusted_Penalty>
0

> <i_epik_Tot_Q>
0

> <i_epik_Tot_abs_Q>
0

> <s_epik_Chemistry_Notes>
This compound has an ester and may undergo hydrolysis at high or low pH.

> <s_lp_Force_Field>
S-OPLS

> <r_lp_Energy>
84.3914

> <b_lp_Chiralities_Consistent>
1

> <s_lp_Variant>
ligprep_h3d.sdf:2377-1

> <ROCS_ShapeQuery>
_7L13

> <ROCS_TanimotoCombo>
0.699 

> <ROCS_ShapeTanimoto>
0.596 

> <ROCS_ColorTanimoto>
0.102 

> <ROCS_RefTversky>
0.810 

> <ROCS_RefColorTversky>
0.240 

> <ROCS_RefTverskyCombo>
1.050 

> <ROCS_FitTversky>
0.693 

> <ROCS_FitColorTversky>
0.152 

> <ROCS_FitTverskyCombo>
0.845 

> <ROCS_ColorScore>
-2.232

> <ROCS_Overlap>
1357.776

> <ROCS_Rank>
115                 

$$$$
ligprep_h3d.sdf:916_1980
  -OEChem-08212117123D

 59 64  0     1  0  0  0  0  0999 V2000
  -20.5478   -4.8756  -29.7583 C   0  0  0  0  0  0  0  0  0  0  0  0
  -21.4788   -4.3145  -30.6350 C   0  0  0  0  0  0  0  0  0  0  0  0
  -20.7489   -4.7257  -28.3650 C   0  0  0  0  0  0  0  0  0  0  0  0
  -21.8774   -4.0637  -27.8261 C   0  0  0  0  0  0  0  0  0  0  0  0
  -22.5577   -3.6420  -30.1044 C   0  0  0  0  0  0  0  0  0  0  0  0
  -22.7943   -3.4897  -28.7380 C   0  0  0  0  0  0  0  0  0  0  0  0
  -21.6690   -4.2094  -32.0254 C   0  0  0  0  0  0  0  0  0  0  0  0
  -18.9703   -3.1526  -26.3960 C   0  0  0  0  0  0  0  0  0  0  0  0
  -18.2759   -6.5267  -35.7632 C   0  0  0  0  0  0  0  0  0  0  0  0
  -18.7053   -5.4139  -25.2481 C   0  0  0  0  0  0  0  0  0  0  0  0
  -16.8334   -3.9534  -25.9796 C   0  0  0  0  0  0  0  0  0  0  0  0
  -19.7202   -5.3255  -27.4442 C   0  0  0  0  0  0  0  0  0  0  0  0
  -19.0282   -5.6403  -34.8009 C   0  0  0  0  0  0  0  0  0  0  0  0
  -20.1426   -7.7538  -35.0204 C   0  0  0  0  0  0  0  0  0  0  0  0
  -23.2539   -3.3359  -25.8873 C   0  0  0  0  0  0  0  0  0  0  0  0
  -19.9030   -6.6290  -34.0239 C   0  0  2  0  0  0  0  0  0  0  0  0
  -21.0229   -4.4416  -25.4783 C   0  0  2  0  0  0  0  0  0  0  0  0
  -23.5475   -3.7980  -24.4570 C   0  0  1  0  0  0  0  0  0  0  0  0
  -21.1530   -3.5460  -24.2114 C   0  0  2  0  0  0  0  0  0  0  0  0
  -19.5980   -4.5382  -26.1162 C   0  0  2  0  0  0  0  0  0  0  0  0
  -24.1726   -5.1908  -24.4064 C   0  0  0  0  0  0  0  0  0  0  0  0
  -20.1203   -3.7725  -23.1145 C   0  0  0  0  0  0  0  0  0  0  0  0
  -21.1883   -6.0077  -33.5056 C   0  0  0  0  0  0  0  0  0  0  0  0
  -22.7745   -3.5255  -32.3355 N   0  0  0  0  0  0  0  0  0  0  0  0
  -17.6567   -3.1292  -26.6289 N   0  5  0  0  0  0  0  0  0  0  0  0
  -17.3828   -5.0174  -25.2665 N   0  0  0  0  0  0  0  0  0  0  0  0
  -18.9644   -7.7311  -35.8417 N   0  0  0  0  0  0  0  0  0  0  0  0
  -22.0556   -3.9770  -26.4431 N   0  0  3  0  0  0  0  0  0  0  0  0
  -19.6800   -2.1534  -26.5087 O   0  0  0  0  0  0  0  0  0  0  0  0
  -17.2707   -6.2075  -36.3794 O   0  0  0  0  0  0  0  0  0  0  0  0
  -19.0952   -6.4162  -24.6532 O   0  0  0  0  0  0  0  0  0  0  0  0
  -15.6062   -3.8261  -25.9985 O   0  0  0  0  0  0  0  0  0  0  0  0
  -23.3346   -3.1654  -31.1154 O   0  0  0  0  0  0  0  0  0  0  0  0
  -22.4218   -3.7751  -23.5842 O   0  0  0  0  0  0  0  0  0  0  0  0
  -20.9059   -4.6862  -33.0178 O   0  0  0  0  0  0  0  0  0  0  0  0
  -23.8233   -2.7217  -28.3604 F   0  0  0  0  0  0  0  0  0  0  0  0
  -19.6812   -5.4075  -30.1400 H   0  0  0  0  0  0  0  0  0  0  0  0
  -20.0118   -6.3674  -27.2541 H   0  0  0  0  0  0  0  0  0  0  0  0
  -18.7469   -5.3631  -27.9512 H   0  0  0  0  0  0  0  0  0  0  0  0
  -18.3359   -5.1105  -34.1414 H   0  0  0  0  0  0  0  0  0  0  0  0
  -19.6194   -4.9216  -35.3777 H   0  0  0  0  0  0  0  0  0  0  0  0
  -20.2388   -8.7310  -34.5398 H   0  0  0  0  0  0  0  0  0  0  0  0
  -21.0079   -7.5755  -35.6669 H   0  0  0  0  0  0  0  0  0  0  0  0
  -24.1060   -3.6043  -26.5452 H   0  0  0  0  0  0  0  0  0  0  0  0
  -23.2453   -2.2347  -25.8859 H   0  0  0  0  0  0  0  0  0  0  0  0
  -19.3269   -7.0195  -33.1746 H   0  0  0  0  0  0  0  0  0  0  0  0
  -21.3377   -5.4576  -25.1902 H   0  0  0  0  0  0  0  0  0  0  0  0
  -24.3323   -3.0961  -24.0069 H   0  0  0  0  0  0  0  0  0  0  0  0
  -21.1088   -2.4749  -24.4788 H   0  0  0  0  0  0  0  0  0  0  0  0
  -23.4816   -5.9250  -24.8210 H   0  0  0  0  0  0  0  0  0  0  0  0
  -25.0954   -5.2068  -24.9864 H   0  0  0  0  0  0  0  0  0  0  0  0
  -24.3984   -5.4610  -23.3747 H   0  0  0  0  0  0  0  0  0  0  0  0
  -20.1217   -4.8196  -22.8113 H   0  0  0  0  0  0  0  0  0  0  0  0
  -20.3543   -3.1533  -22.2484 H   0  0  0  0  0  0  0  0  0  0  0  0
  -19.1265   -3.5109  -23.4783 H   0  0  0  0  0  0  0  0  0  0  0  0
  -21.6003   -6.6050  -32.6867 H   0  0  0  0  0  0  0  0  0  0  0  0
  -21.9306   -5.9368  -34.3061 H   0  0  0  0  0  0  0  0  0  0  0  0
  -16.7400   -5.5606  -24.6982 H   0  0  0  0  0  0  0  0  0  0  0  0
  -18.6883   -8.4926  -36.4534 H   0  0  0  0  0  0  0  0  0  0  0  0
  1  2  2  0  0  0  0
  1  3  1  0  0  0  0
  2  5  1  0  0  0  0
  2  7  1  0  0  0  0
  3  4  2  0  0  0  0
  3 12  1  0  0  0  0
  4  6  1  0  0  0  0
  4 28  1  0  0  0  0
  5  6  2  0  0  0  0
  5 33  1  0  0  0  0
  6 36  1  0  0  0  0
  7 24  2  0  0  0  0
  7 35  1  0  0  0  0
  8 20  1  0  0  0  0
  8 25  1  0  0  0  0
  8 29  2  0  0  0  0
  9 13  1  0  0  0  0
  9 27  1  0  0  0  0
  9 30  2  0  0  0  0
 10 20  1  0  0  0  0
 10 26  1  0  0  0  0
 10 31  2  0  0  0  0
 11 25  1  0  0  0  0
 11 26  1  0  0  0  0
 11 32  2  0  0  0  0
 12 20  1  0  0  0  0
 13 16  1  0  0  0  0
 14 16  1  0  0  0  0
 14 27  1  0  0  0  0
 15 18  1  0  0  0  0
 15 28  1  0  0  0  0
 16 23  1  0  0  0  0
 17 19  1  0  0  0  0
 17 20  1  0  0  0  0
 17 28  1  0  0  0  0
 18 21  1  0  0  0  0
 18 34  1  0  0  0  0
 19 22  1  0  0  0  0
 19 34  1  0  0  0  0
 23 35  1  0  0  0  0
 24 33  1  0  0  0  0
  1 37  1  0  0  0  0
 12 38  1  0  0  0  0
 12 39  1  0  0  0  0
 13 40  1  0  0  0  0
 13 41  1  0  0  0  0
 14 42  1  0  0  0  0
 14 43  1  0  0  0  0
 15 44  1  0  0  0  0
 15 45  1  0  0  0  0
 16 46  1  0  0  0  0
 17 47  1  0  0  0  0
 18 48  1  0  0  0  0
 19 49  1  0  0  0  0
 21 50  1  0  0  0  0
 21 51  1  0  0  0  0
 21 52  1  0  0  0  0
 22 53  1  0  0  0  0
 22 54  1  0  0  0  0
 22 55  1  0  0  0  0
 23 56  1  0  0  0  0
 23 57  1  0  0  0  0
 26 58  1  0  0  0  0
 27 59  1  0  0  0  0
M  CHG  1  25  -1
M  END
> <SMILES>
C[C@@H]1CN2[C@H]([C@H](C)O1)C1(Cc3cc4c(noc4c(c32)F)OC[C@H]2CNC(=O)C2)C(=O)NC(=O)NC1=O

> <FORMATTED_ID>
H3D-005864

> <MOLFORMULA>
C23H24FN5O7

> <Exact Mass>
501.17

> <XLogP>
0.03

> <TPSA_NOPS>
152.4

> <s_m_source_file>
ligprep_h3d.sdf

> <i_m_source_file_index>
916

> <i_lp_mmshare_version>
55123

> <i_f3d_flags>
0

> <s_epik_input>
Tz1DMVtOSF1DKD1PKVtOSF1DKD1PKUMxMltDQEBIXTNOKFtDSDJdW0NAQEhdKFtDSDNdKU9bQ0BIXTNbQ0gzXSljNGMoW0NIMl0yKVtjSF1jNWMoYzRGKW9uYzVPW0NIMl1bQ0BIXTZbQ0gyXVtOSF1DKD1PKVtDSDJdNg==

> <s_epik_cmdline>
J2VwaWtfcHl0aG9uJywgJy1waHQnLCAnMC41JywgJy1waCcsICc3LjUnLCAnLXRuJywgJzgnLCAnLW1hJywgJzUwMCcsICctaW1hZScsICc8aW5maWxlLm1hZT4nLCAnLW9tYWUnLCAnPG91dGZpbGUubWFlPic=

> <r_lp_tautomer_probability>
1

> <r_epik_Ionization_Penalty>
0.45539

> <r_epik_Ionization_Penalty_Charging>
0.455373

> <r_epik_Ionization_Penalty_Neutral>
1.6792e-05

> <r_epik_State_Penalty>
0.458483

> <r_epik_Charging_Adjusted_Penalty>
0.913857

> <i_epik_Tot_Q>
-1

> <i_epik_Tot_abs_Q>
1

> <s_lp_Force_Field>
S-OPLS

> <r_lp_Energy>
48.7453

> <b_lp_Chiralities_Consistent>
1

> <s_lp_Variant>
ligprep_h3d.sdf:916-2

> <ROCS_ShapeQuery>
_7L13

> <ROCS_TanimotoCombo>
0.767 

> <ROCS_ShapeTanimoto>
0.667 

> <ROCS_ColorTanimoto>
0.101 

> <ROCS_RefTversky>
0.810 

> <ROCS_RefColorTversky>
0.253 

> <ROCS_RefTverskyCombo>
1.063 

> <ROCS_FitTversky>
0.790 

> <ROCS_FitColorTversky>
0.143 

> <ROCS_FitTverskyCombo>
0.933 

> <ROCS_ColorScore>
-2.379

> <ROCS_Overlap>
1346.874

> <ROCS_Rank>
116                 

$$$$
ligprep_h3d.sdf:1336_66
  -OEChem-08212117123D

 51 56  0     1  0  0  0  0  0999 V2000
  -20.9353   -5.0964  -29.5075 C   0  0  0  0  0  0  0  0  0  0  0  0
  -21.7344   -4.3547  -30.3803 C   0  0  0  0  0  0  0  0  0  0  0  0
  -21.0640   -4.8797  -28.1141 C   0  0  0  0  0  0  0  0  0  0  0  0
  -22.0000   -3.9696  -27.5718 C   0  0  0  0  0  0  0  0  0  0  0  0
  -22.6203   -3.4451  -29.8459 C   0  0  0  0  0  0  0  0  0  0  0  0
  -22.7843   -3.2189  -28.4795 C   0  0  0  0  0  0  0  0  0  0  0  0
  -21.9276   -4.2346  -31.7691 C   0  0  0  0  0  0  0  0  0  0  0  0
  -21.2180   -4.9928  -32.8154 C   0  0  0  0  0  0  0  0  0  0  0  0
  -20.4705   -6.5578  -34.0018 C   0  0  0  0  0  0  0  0  0  0  0  0
  -19.1971   -6.0490  -25.0035 C   0  0  0  0  0  0  0  0  0  0  0  0
  -18.9532   -3.7727  -26.1506 C   0  0  0  0  0  0  0  0  0  0  0  0
  -17.0689   -5.2921  -25.6013 C   0  0  0  0  0  0  0  0  0  0  0  0
  -24.2311   -4.5708  -24.0414 C   0  0  0  0  0  0  0  0  0  0  0  0
  -20.1771   -5.6834  -27.2012 C   0  0  0  0  0  0  0  0  0  0  0  0
  -23.1672   -2.9445  -25.6342 C   0  0  0  0  0  0  0  0  0  0  0  0
  -23.4741   -3.2821  -24.1789 C   0  0  2  0  0  0  0  0  0  0  0  0
  -21.2141   -4.4885  -25.2237 C   0  0  2  0  0  0  0  0  0  0  0  0
  -21.0784   -3.5297  -24.0015 C   0  0  2  0  0  0  0  0  0  0  0  0
  -19.8672   -4.9568  -25.8692 C   0  0  1  0  0  0  0  0  0  0  0  0
  -20.2709   -7.9515  -34.4187 C   0  0  0  0  0  0  0  0  0  0  0  0
  -20.1071   -3.9604  -22.9090 C   0  0  0  0  0  0  0  0  0  0  0  0
  -22.8558   -3.3229  -32.0747 N   0  0  0  0  0  0  0  0  0  0  0  0
  -20.4896   -4.4219  -33.7461 N   0  0  0  0  0  0  0  0  0  0  0  0
  -19.9979   -5.4515  -34.5267 N   0  0  0  0  0  0  0  0  0  0  0  0
  -17.8860   -6.2446  -25.1554 N   0  5  0  0  0  0  0  0  0  0  0  0
  -17.6166   -4.0828  -26.0184 N   0  0  0  0  0  0  0  0  0  0  0  0
  -22.1222   -3.8158  -26.1899 N   0  0  3  0  0  0  0  0  0  0  0  0
  -23.6372   -5.5944  -24.4805 O   0  5  0  0  0  0  0  0  0  0  0  0
  -19.8923   -6.7839  -24.2992 O   0  0  0  0  0  0  0  0  0  0  0  0
  -19.3432   -2.6671  -26.5179 O   0  0  0  0  0  0  0  0  0  0  0  0
  -15.8444   -5.4349  -25.6584 O   0  0  0  0  0  0  0  0  0  0  0  0
  -25.3681   -4.4623  -23.5022 O   0  0  0  0  0  0  0  0  0  0  0  0
  -23.2917   -2.8228  -30.8532 O   0  0  0  0  0  0  0  0  0  0  0  0
  -21.2560   -6.3501  -32.9098 O   0  0  0  0  0  0  0  0  0  0  0  0
  -22.3399   -3.3731  -23.3363 O   0  0  0  0  0  0  0  0  0  0  0  0
  -23.6031   -2.2297  -28.1042 F   0  0  0  0  0  0  0  0  0  0  0  0
  -20.2208   -5.8193  -29.8911 H   0  0  0  0  0  0  0  0  0  0  0  0
  -20.6793   -6.6413  -27.0122 H   0  0  0  0  0  0  0  0  0  0  0  0
  -19.2383   -5.9144  -27.7213 H   0  0  0  0  0  0  0  0  0  0  0  0
  -24.0764   -3.0863  -26.2545 H   0  0  0  0  0  0  0  0  0  0  0  0
  -22.9725   -1.8627  -25.6930 H   0  0  0  0  0  0  0  0  0  0  0  0
  -24.1589   -2.4627  -23.7314 H   0  0  0  0  0  0  0  0  0  0  0  0
  -21.7660   -5.3766  -24.8860 H   0  0  0  0  0  0  0  0  0  0  0  0
  -20.7570   -2.5209  -24.3337 H   0  0  0  0  0  0  0  0  0  0  0  0
  -19.3898   -8.3998  -33.9248 H   0  0  0  0  0  0  0  0  0  0  0  0
  -21.1416   -8.5913  -34.1814 H   0  0  0  0  0  0  0  0  0  0  0  0
  -20.1196   -8.0473  -35.5106 H   0  0  0  0  0  0  0  0  0  0  0  0
  -20.3746   -4.9513  -22.5414 H   0  0  0  0  0  0  0  0  0  0  0  0
  -20.1420   -3.2543  -22.0792 H   0  0  0  0  0  0  0  0  0  0  0  0
  -19.0915   -3.9921  -23.3040 H   0  0  0  0  0  0  0  0  0  0  0  0
  -16.9566   -3.3564  -26.2796 H   0  0  0  0  0  0  0  0  0  0  0  0
  1  2  2  0  0  0  0
  1  3  1  0  0  0  0
  2  5  1  0  0  0  0
  2  7  1  0  0  0  0
  3  4  2  0  0  0  0
  3 14  1  0  0  0  0
  4  6  1  0  0  0  0
  4 27  1  0  0  0  0
  5  6  2  0  0  0  0
  5 33  1  0  0  0  0
  6 36  1  0  0  0  0
  7  8  1  0  0  0  0
  7 22  2  0  0  0  0
  8 23  2  0  0  0  0
  8 34  1  0  0  0  0
  9 20  1  0  0  0  0
  9 24  2  0  0  0  0
  9 34  1  0  0  0  0
 10 19  1  0  0  0  0
 10 25  1  0  0  0  0
 10 29  2  0  0  0  0
 11 19  1  0  0  0  0
 11 26  1  0  0  0  0
 11 30  2  0  0  0  0
 12 25  1  0  0  0  0
 12 26  1  0  0  0  0
 12 31  2  0  0  0  0
 13 16  1  0  0  0  0
 13 28  1  0  0  0  0
 13 32  2  0  0  0  0
 14 19  1  0  0  0  0
 15 16  1  0  0  0  0
 15 27  1  0  0  0  0
 16 35  1  0  0  0  0
 17 18  1  0  0  0  0
 17 19  1  0  0  0  0
 17 27  1  0  0  0  0
 18 21  1  0  0  0  0
 18 35  1  0  0  0  0
 22 33  1  0  0  0  0
 23 24  1  0  0  0  0
  1 37  1  0  0  0  0
 14 38  1  0  0  0  0
 14 39  1  0  0  0  0
 15 40  1  0  0  0  0
 15 41  1  0  0  0  0
 16 42  1  0  0  0  0
 17 43  1  0  0  0  0
 18 44  1  0  0  0  0
 20 45  1  0  0  0  0
 20 46  1  0  0  0  0
 20 47  1  0  0  0  0
 21 48  1  0  0  0  0
 21 49  1  0  0  0  0
 21 50  1  0  0  0  0
 26 51  1  0  0  0  0
M  CHG  2  25  -1  28  -1
M  END
> <SMILES>
C[C@@H]1O[C@@H](CN2[C@H]1C1(Cc3cc4c(noc4c(c32)F)-c2nnc(o2)C)C(=O)NC(=O)NC1=O)C(=O)O

> <FORMATTED_ID>
H3D-009073

> <MOLFORMULA>
C21H17FN6O8

> <Exact Mass>
500.11

> <XLogP>
-0.31

> <TPSA_NOPS>
190.6

> <s_m_source_file>
ligprep_h3d.sdf

> <i_m_source_file_index>
1336

> <i_lp_mmshare_version>
55123

> <i_f3d_flags>
0

> <s_epik_input>
Tz1DMVtOSF1DKD1PKVtOSF1DKD1PKUMxMltDQEBIXTNOKFtDSDJdW0NAQEhdKEMoPU8pW09IXSlPW0NASF0zW0NIM10pYzRjKFtDSDJdMilbY0hdYzVjKGM0RilvbmM1LWM2bm5jKG82KVtDSDNd

> <s_epik_cmdline>
J2VwaWtfcHl0aG9uJywgJy1waHQnLCAnMC41JywgJy1waCcsICc3LjUnLCAnLXRuJywgJzgnLCAnLW1hJywgJzUwMCcsICctaW1hZScsICc8aW5maWxlLm1hZT4nLCAnLW9tYWUnLCAnPG91dGZpbGUubWFlPic=

> <r_lp_tautomer_probability>
1

> <r_epik_Ionization_Penalty>
0.484844

> <r_epik_Ionization_Penalty_Charging>
0.48483

> <r_epik_Ionization_Penalty_Neutral>
1.38121e-05

> <r_epik_State_Penalty>
0.49006

> <r_epik_Charging_Adjusted_Penalty>
0.97489

> <i_epik_Tot_Q>
-2

> <i_epik_Tot_abs_Q>
2

> <s_lp_Force_Field>
S-OPLS

> <r_lp_Energy>
60.9297

> <b_lp_Chiralities_Consistent>
1

> <s_lp_Variant>
ligprep_h3d.sdf:1336-2

> <ROCS_ShapeQuery>
_7L13

> <ROCS_TanimotoCombo>
0.766 

> <ROCS_ShapeTanimoto>
0.657 

> <ROCS_ColorTanimoto>
0.109 

> <ROCS_RefTversky>
0.810 

> <ROCS_RefColorTversky>
0.293 

> <ROCS_RefTverskyCombo>
1.103 

> <ROCS_FitTversky>
0.777 

> <ROCS_FitColorTversky>
0.148 

> <ROCS_FitTverskyCombo>
0.925 

> <ROCS_ColorScore>
-2.786

> <ROCS_Overlap>
1347.972

> <ROCS_Rank>
117                 

$$$$
ligprep_h3d.sdf:1230_1798
  -OEChem-08212117123D

 68 72  0     0  0  0  0  0  0999 V2000
  -16.7023   -6.2769  -26.5594 C   0  0  0  0  0  0  0  0  0  0  0  0
  -15.8393   -5.1866  -26.6683 C   0  0  0  0  0  0  0  0  0  0  0  0
  -18.0829   -6.0779  -26.5740 C   0  0  0  0  0  0  0  0  0  0  0  0
  -20.1334   -3.8974  -32.3403 C   0  0  0  0  0  0  0  0  0  0  0  0
  -20.4704   -6.2784  -32.1074 C   0  0  0  0  0  0  0  0  0  0  0  0
  -19.6032   -4.0971  -33.6149 C   0  0  0  0  0  0  0  0  0  0  0  0
  -19.9402   -6.4781  -33.3820 C   0  0  0  0  0  0  0  0  0  0  0  0
  -16.3567   -3.8972  -26.7917 C   0  0  0  0  0  0  0  0  0  0  0  0
  -20.6084   -4.3839  -25.4628 C   0  0  0  0  0  0  0  0  0  0  0  0
  -23.0244   -4.3720  -28.8441 C   0  0  0  0  0  0  0  0  0  0  0  0
  -20.8419   -4.5849  -27.8607 C   0  0  0  0  0  0  0  0  0  0  0  0
  -20.5669   -4.9880  -31.5865 C   0  0  0  0  0  0  0  0  0  0  0  0
  -18.6003   -4.7885  -26.6973 C   0  0  0  0  0  0  0  0  0  0  0  0
  -20.0394   -4.5863  -26.7119 C   0  0  0  0  0  0  0  0  0  0  0  0
  -21.1167   -4.7808  -30.2644 C   0  0  0  0  0  0  0  0  0  0  0  0
  -19.5066   -5.3874  -34.1358 C   0  0  0  0  0  0  0  0  0  0  0  0
  -22.4823   -4.5730  -30.1159 C   0  0  0  0  0  0  0  0  0  0  0  0
  -20.2964   -4.7871  -29.1399 C   0  0  0  0  0  0  0  0  0  0  0  0
  -22.2276   -4.3735  -27.7025 C   0  0  0  0  0  0  0  0  0  0  0  0
  -17.7373   -3.6981  -26.8062 C   0  0  0  0  0  0  0  0  0  0  0  0
  -21.9731   -4.1854  -25.4079 C   0  0  0  0  0  0  0  0  0  0  0  0
  -22.6317   -3.9675  -24.1313 C   0  0  0  0  0  0  0  0  0  0  0  0
  -26.1110   -4.8426  -23.1358 C   0  0  0  0  0  0  0  0  0  0  0  0
  -18.2937   -7.3004  -37.0967 C   0  0  0  0  0  0  0  0  0  0  0  0
  -20.6093   -7.0345  -36.4917 C   0  0  0  0  0  0  0  0  0  0  0  0
  -18.6200   -8.6967  -37.6189 C   0  0  0  0  0  0  0  0  0  0  0  0
  -20.8807   -8.4375  -37.0271 C   0  0  0  0  0  0  0  0  0  0  0  0
  -23.4088   -4.5561  -31.2902 C   0  0  0  0  0  0  0  0  0  0  0  0
  -18.8320   -5.0189  -29.3858 C   0  0  0  0  0  0  0  0  0  0  0  0
  -18.9357   -5.6024  -35.5076 C   0  0  0  0  0  0  0  0  0  0  0  0
  -24.7539   -4.2355  -22.8217 C   0  0  0  0  0  0  0  0  0  0  0  0
  -22.7827   -4.1767  -26.4916 N   0  0  0  0  0  0  0  0  0  0  0  0
  -19.2222   -6.9426  -36.0153 N   0  0  0  0  0  0  0  0  0  0  0  0
  -23.9582   -4.4014  -24.0167 N   0  0  0  0  0  0  0  0  0  0  0  0
  -26.9523   -4.7933  -22.1944 O   0  5  0  0  0  0  0  0  0  0  0  0
  -22.0333   -3.3996  -23.1994 O   0  0  0  0  0  0  0  0  0  0  0  0
  -26.2331   -5.3104  -24.3031 O   0  0  0  0  0  0  0  0  0  0  0  0
  -19.9701   -8.7522  -38.0811 O   0  0  0  0  0  0  0  0  0  0  0  0
  -18.2186   -2.4519  -26.9239 F   0  0  0  0  0  0  0  0  0  0  0  0
  -16.2992   -7.2809  -26.4635 H   0  0  0  0  0  0  0  0  0  0  0  0
  -14.7645   -5.3416  -26.6569 H   0  0  0  0  0  0  0  0  0  0  0  0
  -18.7425   -6.9381  -26.4879 H   0  0  0  0  0  0  0  0  0  0  0  0
  -20.2015   -2.8855  -31.9479 H   0  0  0  0  0  0  0  0  0  0  0  0
  -20.8046   -7.1387  -31.5323 H   0  0  0  0  0  0  0  0  0  0  0  0
  -19.2669   -3.2416  -34.1946 H   0  0  0  0  0  0  0  0  0  0  0  0
  -19.8692   -7.4869  -33.7802 H   0  0  0  0  0  0  0  0  0  0  0  0
  -15.6849   -3.0482  -26.8765 H   0  0  0  0  0  0  0  0  0  0  0  0
  -20.0118   -4.3798  -24.5549 H   0  0  0  0  0  0  0  0  0  0  0  0
  -24.0970   -4.2103  -28.7427 H   0  0  0  0  0  0  0  0  0  0  0  0
  -17.2609   -7.2894  -36.7300 H   0  0  0  0  0  0  0  0  0  0  0  0
  -18.3709   -6.5768  -37.9187 H   0  0  0  0  0  0  0  0  0  0  0  0
  -20.7878   -6.2994  -37.2873 H   0  0  0  0  0  0  0  0  0  0  0  0
  -21.3073   -6.8258  -35.6729 H   0  0  0  0  0  0  0  0  0  0  0  0
  -17.9680   -8.9393  -38.4642 H   0  0  0  0  0  0  0  0  0  0  0  0
  -18.4646   -9.4624  -36.8492 H   0  0  0  0  0  0  0  0  0  0  0  0
  -20.8024   -9.1951  -36.2376 H   0  0  0  0  0  0  0  0  0  0  0  0
  -21.8944   -8.4908  -37.4367 H   0  0  0  0  0  0  0  0  0  0  0  0
  -23.4989   -3.5385  -31.6854 H   0  0  0  0  0  0  0  0  0  0  0  0
  -23.0446   -5.2125  -32.0889 H   0  0  0  0  0  0  0  0  0  0  0  0
  -24.4064   -4.9141  -31.0101 H   0  0  0  0  0  0  0  0  0  0  0  0
  -18.6149   -6.0894  -29.3476 H   0  0  0  0  0  0  0  0  0  0  0  0
  -18.5375   -4.6293  -30.3643 H   0  0  0  0  0  0  0  0  0  0  0  0
  -18.2272   -4.5046  -28.6336 H   0  0  0  0  0  0  0  0  0  0  0  0
  -19.3505   -4.8774  -36.2164 H   0  0  0  0  0  0  0  0  0  0  0  0
  -17.8486   -5.4704  -35.5060 H   0  0  0  0  0  0  0  0  0  0  0  0
  -24.2826   -4.7463  -21.9764 H   0  0  0  0  0  0  0  0  0  0  0  0
  -24.8499   -3.1743  -22.5716 H   0  0  0  0  0  0  0  0  0  0  0  0
  -24.4201   -4.8017  -24.8268 H   0  0  0  0  0  0  0  0  0  0  0  0
  1  2  2  0  0  0  0
  1  3  1  0  0  0  0
  2  8  1  0  0  0  0
  3 13  2  0  0  0  0
  4  6  1  0  0  0  0
  4 12  2  0  0  0  0
  5  7  2  0  0  0  0
  5 12  1  0  0  0  0
  6 16  2  0  0  0  0
  7 16  1  0  0  0  0
  8 20  2  0  0  0  0
  9 14  1  0  0  0  0
  9 21  2  0  0  0  0
 10 17  2  0  0  0  0
 10 19  1  0  0  0  0
 11 14  2  0  0  0  0
 11 18  1  0  0  0  0
 11 19  1  0  0  0  0
 12 15  1  0  0  0  0
 13 14  1  0  0  0  0
 13 20  1  0  0  0  0
 15 17  1  0  0  0  0
 15 18  2  0  0  0  0
 16 30  1  0  0  0  0
 17 28  1  0  0  0  0
 18 29  1  0  0  0  0
 19 32  2  0  0  0  0
 20 39  1  0  0  0  0
 21 22  1  0  0  0  0
 21 32  1  0  0  0  0
 22 34  1  0  0  0  0
 22 36  2  0  0  0  0
 23 31  1  0  0  0  0
 23 35  1  0  0  0  0
 23 37  2  0  0  0  0
 24 26  1  0  0  0  0
 24 33  1  0  0  0  0
 25 27  1  0  0  0  0
 25 33  1  0  0  0  0
 26 38  1  0  0  0  0
 27 38  1  0  0  0  0
 30 33  1  0  0  0  0
 31 34  1  0  0  0  0
  1 40  1  0  0  0  0
  2 41  1  0  0  0  0
  3 42  1  0  0  0  0
  4 43  1  0  0  0  0
  5 44  1  0  0  0  0
  6 45  1  0  0  0  0
  7 46  1  0  0  0  0
  8 47  1  0  0  0  0
  9 48  1  0  0  0  0
 10 49  1  0  0  0  0
 24 50  1  0  0  0  0
 24 51  1  0  0  0  0
 25 52  1  0  0  0  0
 25 53  1  0  0  0  0
 26 54  1  0  0  0  0
 26 55  1  0  0  0  0
 27 56  1  0  0  0  0
 27 57  1  0  0  0  0
 28 58  1  0  0  0  0
 28 59  1  0  0  0  0
 28 60  1  0  0  0  0
 29 61  1  0  0  0  0
 29 62  1  0  0  0  0
 29 63  1  0  0  0  0
 30 64  1  0  0  0  0
 30 65  1  0  0  0  0
 31 66  1  0  0  0  0
 31 67  1  0  0  0  0
 34 68  1  0  0  0  0
M  CHG  1  35  -1
M  END
> <SMILES>
Cc1cc2nc(cc(c2c(c1-c1ccc(cc1)CN1CCOCC1)C)-c1ccccc1F)C(=O)NCC(=O)O

> <FORMATTED_ID>
H3D-008418

> <MOLFORMULA>
C31H30FN3O4

> <Exact Mass>
527.22

> <XLogP>
4.4

> <TPSA_NOPS>
91.8

> <s_m_source_file>
ligprep_h3d.sdf

> <i_m_source_file_index>
1230

> <i_lp_mmshare_version>
55123

> <i_f3d_flags>
0

> <s_epik_input>
RmMxW2NIXVtjSF1bY0hdW2NIXWMxLWMoW2NIXWMobjIpQyg9TylbTkhdW0NIMl1DKD1PKVtPSF0pYyhjMjMpYyhbQ0gzXSljKGMoW0NIM10pW2NIXTMpLWM0W2NIXVtjSF1jKFtjSF1bY0hdNClbQ0gyXU41W0NIMl1bQ0gyXU9bQ0gyXVtDSDJdNQ==

> <s_epik_cmdline>
J2VwaWtfcHl0aG9uJywgJy1waHQnLCAnMC41JywgJy1waCcsICc3LjUnLCAnLXRuJywgJzgnLCAnLW1hJywgJzUwMCcsICctaW1hZScsICc8aW5maWxlLm1hZT4nLCAnLW9tYWUnLCAnPG91dGZpbGUubWFlPic=

> <r_epik_Ionization_Penalty>
0.106078

> <r_epik_Ionization_Penalty_Charging>
7.49142e-05

> <r_epik_Ionization_Penalty_Neutral>
0.106003

> <r_epik_State_Penalty>
0.095414

> <r_epik_Charging_Adjusted_Penalty>
0.0954889

> <i_epik_Tot_Q>
-1

> <i_epik_Tot_abs_Q>
1

> <s_lp_Force_Field>
S-OPLS

> <r_lp_Energy>
78.8517

> <b_lp_Chiralities_Consistent>
1

> <s_lp_Variant>
ligprep_h3d.sdf:1230-1

> <ROCS_ShapeQuery>
_7L13

> <ROCS_TanimotoCombo>
0.796 

> <ROCS_ShapeTanimoto>
0.640 

> <ROCS_ColorTanimoto>
0.156 

> <ROCS_RefTversky>
0.810 

> <ROCS_RefColorTversky>
0.323 

> <ROCS_RefTverskyCombo>
1.133 

> <ROCS_FitTversky>
0.753 

> <ROCS_FitColorTversky>
0.232 

> <ROCS_FitTverskyCombo>
0.985 

> <ROCS_ColorScore>
-2.975

> <ROCS_Overlap>
1350.493

> <ROCS_Rank>
118                 

$$$$
ligprep_h3d.sdf:4999_1317
  -OEChem-08212117123D

 65 69  0     1  0  0  0  0  0999 V2000
  -18.9795   -7.6099  -36.3445 C   0  0  0  0  0  0  0  0  0  0  0  0
  -19.3307   -6.3270  -36.7644 C   0  0  0  0  0  0  0  0  0  0  0  0
  -19.5238   -8.1333  -35.1716 C   0  0  0  0  0  0  0  0  0  0  0  0
  -20.2260   -5.5673  -36.0114 C   0  0  0  0  0  0  0  0  0  0  0  0
  -20.4191   -7.3736  -34.4186 C   0  0  0  0  0  0  0  0  0  0  0  0
  -23.2522   -4.2285  -24.2282 C   0  0  0  0  0  0  0  0  0  0  0  0
  -25.4352   -4.8747  -25.0370 C   0  0  0  0  0  0  0  0  0  0  0  0
  -23.7344   -4.2376  -22.9194 C   0  0  0  0  0  0  0  0  0  0  0  0
  -25.9174   -4.8838  -23.7282 C   0  0  0  0  0  0  0  0  0  0  0  0
  -17.5700   -5.8558  -25.6123 C   0  0  0  0  0  0  0  0  0  0  0  0
  -17.6780   -3.4444  -25.7153 C   0  0  0  0  0  0  0  0  0  0  0  0
  -16.2272   -4.5212  -24.1113 C   0  0  0  0  0  0  0  0  0  0  0  0
  -20.7702   -6.0906  -34.8385 C   0  0  0  0  0  0  0  0  0  0  0  0
  -18.0896   -4.6931  -26.1813 C   0  0  0  0  0  0  0  0  0  0  0  0
  -24.1026   -4.5470  -25.2870 C   0  0  0  0  0  0  0  0  0  0  0  0
  -25.0670   -4.5653  -22.6694 C   0  0  0  0  0  0  0  0  0  0  0  0
  -16.6388   -5.7699  -24.5773 C   0  0  0  0  0  0  0  0  0  0  0  0
  -16.7468   -3.3585  -24.6803 C   0  0  0  0  0  0  0  0  0  0  0  0
  -22.0043   -3.9942  -31.9058 C   0  0  0  0  0  0  0  0  0  0  0  0
  -22.5032   -3.9799  -29.4768 C   0  0  0  0  0  0  0  0  0  0  0  0
  -19.6085   -5.8998  -27.8791 C   0  0  0  0  0  0  0  0  0  0  0  0
  -19.4817   -3.8155  -28.1653 C   0  0  0  0  0  0  0  0  0  0  0  0
  -20.4531   -5.0593  -30.2046 C   0  0  0  0  0  0  0  0  0  0  0  0
  -21.9608   -4.8083  -28.3199 C   0  0  1  0  0  0  0  0  0  0  0  0
  -20.4699   -4.8985  -28.6820 C   0  0  0  0  0  0  0  0  0  0  0  0
  -21.7386   -5.2692  -34.0233 C   0  0  0  0  0  0  0  0  0  0  0  0
  -22.2799   -4.2183  -26.9590 C   0  0  0  0  0  0  0  0  0  0  0  0
  -21.0308   -4.4209  -32.9753 C   0  0  1  0  0  0  0  0  0  0  0  0
  -19.0249   -4.7790  -27.2218 N   0  0  0  0  0  0  0  0  0  0  0  0
  -21.6574   -4.3356  -30.6086 N   0  0  0  0  0  0  0  0  0  0  0  0
  -20.5367   -3.1802  -33.4989 N   0  0  0  0  0  0  0  0  0  0  0  0
  -23.6198   -4.5378  -26.5977 N   0  0  0  0  0  0  0  0  0  0  0  0
  -23.0283   -3.3780  -32.2062 O   0  0  0  0  0  0  0  0  0  0  0  0
  -25.5301   -4.5741  -21.4125 F   0  0  0  0  0  0  0  0  0  0  0  0
  -16.1388   -6.8867  -24.0324 F   0  0  0  0  0  0  0  0  0  0  0  0
  -16.3501   -2.1595  -24.2342 F   0  0  0  0  0  0  0  0  0  0  0  0
  -18.2835   -8.2018  -36.9316 H   0  0  0  0  0  0  0  0  0  0  0  0
  -18.9078   -5.9197  -37.6782 H   0  0  0  0  0  0  0  0  0  0  0  0
  -19.2515   -9.1325  -34.8450 H   0  0  0  0  0  0  0  0  0  0  0  0
  -20.4936   -4.5685  -36.3462 H   0  0  0  0  0  0  0  0  0  0  0  0
  -20.8380   -7.7895  -33.5061 H   0  0  0  0  0  0  0  0  0  0  0  0
  -22.2120   -3.9720  -24.4116 H   0  0  0  0  0  0  0  0  0  0  0  0
  -26.1067   -5.1242  -25.8546 H   0  0  0  0  0  0  0  0  0  0  0  0
  -23.0726   -3.9900  -22.0948 H   0  0  0  0  0  0  0  0  0  0  0  0
  -26.9549   -5.1386  -23.5330 H   0  0  0  0  0  0  0  0  0  0  0  0
  -17.8831   -6.8337  -25.9683 H   0  0  0  0  0  0  0  0  0  0  0  0
  -18.0758   -2.5321  -26.1522 H   0  0  0  0  0  0  0  0  0  0  0  0
  -15.5011   -4.4551  -23.3064 H   0  0  0  0  0  0  0  0  0  0  0  0
  -23.5215   -4.2863  -29.7344 H   0  0  0  0  0  0  0  0  0  0  0  0
  -22.4965   -2.9021  -29.3026 H   0  0  0  0  0  0  0  0  0  0  0  0
  -20.1522   -6.5502  -27.1810 H   0  0  0  0  0  0  0  0  0  0  0  0
  -18.8793   -6.4958  -28.4395 H   0  0  0  0  0  0  0  0  0  0  0  0
  -18.7070   -3.4952  -28.8641 H   0  0  0  0  0  0  0  0  0  0  0  0
  -19.9440   -2.9497  -27.6830 H   0  0  0  0  0  0  0  0  0  0  0  0
  -19.5924   -4.5570  -30.6588 H   0  0  0  0  0  0  0  0  0  0  0  0
  -20.4886   -6.0979  -30.5458 H   0  0  0  0  0  0  0  0  0  0  0  0
  -22.4364   -5.8388  -28.3638 H   0  0  0  0  0  0  0  0  0  0  0  0
  -22.3133   -4.6288  -34.7061 H   0  0  0  0  0  0  0  0  0  0  0  0
  -22.4800   -5.9310  -33.5549 H   0  0  0  0  0  0  0  0  0  0  0  0
  -21.5773   -4.6494  -26.2481 H   0  0  0  0  0  0  0  0  0  0  0  0
  -22.1498   -3.1403  -27.0366 H   0  0  0  0  0  0  0  0  0  0  0  0
  -20.2065   -4.9454  -32.4913 H   0  0  0  0  0  0  0  0  0  0  0  0
  -20.6720   -3.1556  -34.4903 H   0  0  0  0  0  0  0  0  0  0  0  0
  -21.0302   -2.4177  -33.0784 H   0  0  0  0  0  0  0  0  0  0  0  0
  -24.2892   -4.7784  -27.3334 H   0  0  0  0  0  0  0  0  0  0  0  0
  1  2  2  0  0  0  0
  1  3  1  0  0  0  0
  2  4  1  0  0  0  0
  3  5  2  0  0  0  0
  4 13  2  0  0  0  0
  5 13  1  0  0  0  0
  6  8  1  0  0  0  0
  6 15  2  0  0  0  0
  7  9  2  0  0  0  0
  7 15  1  0  0  0  0
  8 16  2  0  0  0  0
  9 16  1  0  0  0  0
 10 14  2  0  0  0  0
 10 17  1  0  0  0  0
 11 14  1  0  0  0  0
 11 18  2  0  0  0  0
 12 17  2  0  0  0  0
 12 18  1  0  0  0  0
 13 26  1  0  0  0  0
 14 29  1  0  0  0  0
 15 32  1  0  0  0  0
 16 34  1  0  0  0  0
 17 35  1  0  0  0  0
 18 36  1  0  0  0  0
 19 28  1  0  0  0  0
 19 30  1  0  0  0  0
 19 33  2  0  0  0  0
 20 24  1  0  0  0  0
 20 30  1  0  0  0  0
 21 25  1  0  0  0  0
 21 29  1  0  0  0  0
 22 25  1  0  0  0  0
 22 29  1  0  0  0  0
 23 25  1  0  0  0  0
 23 30  1  0  0  0  0
 24 25  1  0  0  0  0
 24 27  1  0  0  0  0
 26 28  1  0  0  0  0
 27 32  1  0  0  0  0
 28 31  1  0  0  0  0
  1 37  1  0  0  0  0
  2 38  1  0  0  0  0
  3 39  1  0  0  0  0
  4 40  1  0  0  0  0
  5 41  1  0  0  0  0
  6 42  1  0  0  0  0
  7 43  1  0  0  0  0
  8 44  1  0  0  0  0
  9 45  1  0  0  0  0
 10 46  1  0  0  0  0
 11 47  1  0  0  0  0
 12 48  1  0  0  0  0
 20 49  1  0  0  0  0
 20 50  1  0  0  0  0
 21 51  1  0  0  0  0
 21 52  1  0  0  0  0
 22 53  1  0  0  0  0
 22 54  1  0  0  0  0
 23 55  1  0  0  0  0
 23 56  1  0  0  0  0
 24 57  1  0  0  0  0
 26 58  1  0  0  0  0
 26 59  1  0  0  0  0
 27 60  1  0  0  0  0
 27 61  1  0  0  0  0
 28 62  1  0  0  0  0
 31 63  1  0  0  0  0
 31 64  1  0  0  0  0
 32 65  1  0  0  0  0
M  END
> <SMILES>
N[C@H](Cc1ccccc1)C(=O)N1CC(CNc2ccc(cc2)F)C2(C1)CN(C2)c1cc(cc(c1)F)F

> <FORMATTED_ID>
H3D-008976

> <MOLFORMULA>
C28H29F3N4O

> <Exact Mass>
494.23

> <XLogP>
3.64

> <TPSA_NOPS>
61.6

> <s_m_source_file>
ligprep_h3d.sdf

> <i_m_source_file_index>
4999

> <i_lp_mmshare_version>
55123

> <i_f3d_flags>
0

> <s_epik_input>
W2NIXTFbY0hdW2NIXVtjSF1bY0hdYzFbQ0gyXVtDQEBIXShbTkgyXSlDKD1PKU4oW0NIMl0yKVtDSDJdW0NASF0oW0NIMl1bTkhdYzNbY0hdW2NIXWMoRilbY0hdW2NIXTMpQzI0W0NIMl1OKFtDSDJdNCljNVtjSF1jKEYpW2NIXWMoRilbY0hdNQ==

> <s_epik_cmdline>
J2VwaWtfcHl0aG9uJywgJy1waHQnLCAnMC41JywgJy1waCcsICc3LjUnLCAnLXRuJywgJzgnLCAnLW1hJywgJzUwMCcsICctaW1hZScsICc8aW5maWxlLm1hZT4nLCAnLW9tYWUnLCAnPG91dGZpbGUubWFlPic=

> <r_epik_Ionization_Penalty>
0.442245

> <r_epik_Ionization_Penalty_Charging>
0

> <r_epik_Ionization_Penalty_Neutral>
0.442245

> <r_epik_State_Penalty>
0.442014

> <r_epik_Charging_Adjusted_Penalty>
0.442014

> <i_epik_Tot_Q>
0

> <i_epik_Tot_abs_Q>
0

> <s_lp_Force_Field>
S-OPLS

> <r_lp_Energy>
32.6738

> <b_lp_Chiralities_Consistent>
1

> <s_lp_Variant>
ligprep_h3d.sdf:4999-2

> <ROCS_ShapeQuery>
_7L13

> <ROCS_TanimotoCombo>
0.747 

> <ROCS_ShapeTanimoto>
0.686 

> <ROCS_ColorTanimoto>
0.061 

> <ROCS_RefTversky>
0.810 

> <ROCS_RefColorTversky>
0.114 

> <ROCS_RefTverskyCombo>
0.924 

> <ROCS_FitTversky>
0.818 

> <ROCS_FitColorTversky>
0.114 

> <ROCS_FitTverskyCombo>
0.932 

> <ROCS_ColorScore>
-1.028

> <ROCS_Overlap>
1343.982

> <ROCS_Rank>
119                 

$$$$
ligprep_h3d.sdf:5412_1021
  -OEChem-08212117123D

 75 80  0     0  0  0  0  0  0999 V2000
  -21.2746   -4.4242  -33.9774 C   0  0  0  0  0  0  0  0  0  0  0  0
  -20.6052   -6.3842  -32.7335 C   0  0  0  0  0  0  0  0  0  0  0  0
  -20.4241   -4.7947  -35.0190 C   0  0  0  0  0  0  0  0  0  0  0  0
  -19.7547   -6.7548  -33.7752 C   0  0  0  0  0  0  0  0  0  0  0  0
  -23.6168   -3.8098  -27.7580 C   0  0  0  0  0  0  0  0  0  0  0  0
  -20.9848   -4.4669  -28.5377 C   0  0  0  0  0  0  0  0  0  0  0  0
  -14.8999   -5.4214  -25.2880 C   0  0  0  0  0  0  0  0  0  0  0  0
  -15.3733   -6.4129  -26.1146 C   0  0  0  0  0  0  0  0  0  0  0  0
  -22.6774   -4.2077  -26.8147 C   0  0  0  0  0  0  0  0  0  0  0  0
  -21.3651   -5.2189  -32.8346 C   0  0  0  0  0  0  0  0  0  0  0  0
  -21.3775   -4.5311  -27.2086 C   0  0  0  0  0  0  0  0  0  0  0  0
  -23.2355   -3.7407  -29.0995 C   0  0  0  0  0  0  0  0  0  0  0  0
  -21.9283   -4.0671  -29.4862 C   0  0  0  0  0  0  0  0  0  0  0  0
  -19.6642   -5.9601  -34.9180 C   0  0  0  0  0  0  0  0  0  0  0  0
  -16.9989   -5.0551  -25.4560 C   0  0  0  0  0  0  0  0  0  0  0  0
  -18.3548   -4.6159  -25.4162 C   0  0  0  0  0  0  0  0  0  0  0  0
  -18.9599   -6.4578  -26.8928 C   0  0  0  0  0  0  0  0  0  0  0  0
  -17.6854   -6.8777  -26.9361 C   0  0  0  0  0  0  0  0  0  0  0  0
  -19.3185   -5.2759  -26.1010 C   0  0  0  0  0  0  0  0  0  0  0  0
  -23.9261   -5.4192  -24.9882 C   0  0  0  0  0  0  0  0  0  0  0  0
  -23.2345   -3.0107  -24.6650 C   0  0  0  0  0  0  0  0  0  0  0  0
  -21.4388   -4.8220  -24.8854 C   0  0  0  0  0  0  0  0  0  0  0  0
  -24.2023   -5.5310  -23.4931 C   0  0  0  0  0  0  0  0  0  0  0  0
  -23.5155   -3.1399  -23.1722 C   0  0  0  0  0  0  0  0  0  0  0  0
  -22.8613   -4.3555  -25.3175 C   0  0  0  0  0  0  0  0  0  0  0  0
  -27.2852   -4.9619  -22.3902 C   0  0  0  0  0  0  0  0  0  0  0  0
  -26.8184   -4.9370  -19.9311 C   0  0  0  0  0  0  0  0  0  0  0  0
  -24.2342   -1.9546  -30.3113 C   0  0  0  0  0  0  0  0  0  0  0  0
  -22.2803   -4.8213  -31.7140 C   0  0  0  0  0  0  0  0  0  0  0  0
  -24.9942   -4.2547  -21.5044 C   0  0  0  0  0  0  0  0  0  0  0  0
  -26.2126   -5.1687  -21.3193 C   0  0  0  0  0  0  0  0  0  0  0  0
  -15.9092   -4.5848  -24.8839 N   0  0  0  0  0  0  0  0  0  0  0  0
  -16.7200   -6.1792  -26.2230 N   0  0  0  0  0  0  0  0  0  0  0  0
  -20.6145   -4.9009  -26.0962 N   0  0  0  0  0  0  0  0  0  0  0  0
  -24.5888   -4.1770  -22.9509 N   0  3  0  0  0  0  0  0  0  0  0  0
  -25.7906   -6.5333  -21.3871 O   0  0  0  0  0  0  0  0  0  0  0  0
  -24.1504   -3.3502  -30.0318 O   0  0  0  0  0  0  0  0  0  0  0  0
  -21.5637   -3.9964  -30.7984 O   0  0  0  0  0  0  0  0  0  0  0  0
  -18.8495   -6.3175  -35.9194 F   0  0  0  0  0  0  0  0  0  0  0  0
  -21.8621   -3.5140  -34.0649 H   0  0  0  0  0  0  0  0  0  0  0  0
  -20.6694   -7.0098  -31.8471 H   0  0  0  0  0  0  0  0  0  0  0  0
  -20.3541   -4.1766  -35.9090 H   0  0  0  0  0  0  0  0  0  0  0  0
  -19.1627   -7.6618  -33.6967 H   0  0  0  0  0  0  0  0  0  0  0  0
  -24.6297   -3.5564  -27.4608 H   0  0  0  0  0  0  0  0  0  0  0  0
  -19.9766   -4.7160  -28.8502 H   0  0  0  0  0  0  0  0  0  0  0  0
  -13.8811   -5.2679  -24.9634 H   0  0  0  0  0  0  0  0  0  0  0  0
  -14.8858   -7.2360  -26.6186 H   0  0  0  0  0  0  0  0  0  0  0  0
  -18.5938   -3.7391  -24.8222 H   0  0  0  0  0  0  0  0  0  0  0  0
  -19.7341   -6.9845  -27.4405 H   0  0  0  0  0  0  0  0  0  0  0  0
  -17.3713   -7.7435  -27.5062 H   0  0  0  0  0  0  0  0  0  0  0  0
  -23.6213   -6.4012  -25.3731 H   0  0  0  0  0  0  0  0  0  0  0  0
  -24.8690   -5.1786  -25.4977 H   0  0  0  0  0  0  0  0  0  0  0  0
  -24.1260   -2.5909  -25.1504 H   0  0  0  0  0  0  0  0  0  0  0  0
  -22.4361   -2.2732  -24.8193 H   0  0  0  0  0  0  0  0  0  0  0  0
  -20.9779   -4.1212  -24.1787 H   0  0  0  0  0  0  0  0  0  0  0  0
  -21.4631   -5.8048  -24.3991 H   0  0  0  0  0  0  0  0  0  0  0  0
  -25.0430   -6.2086  -23.3106 H   0  0  0  0  0  0  0  0  0  0  0  0
  -23.3296   -5.8788  -22.9307 H   0  0  0  0  0  0  0  0  0  0  0  0
  -22.6313   -3.4485  -22.6048 H   0  0  0  0  0  0  0  0  0  0  0  0
  -23.8891   -2.1918  -22.7714 H   0  0  0  0  0  0  0  0  0  0  0  0
  -26.8846   -5.1201  -23.3967 H   0  0  0  0  0  0  0  0  0  0  0  0
  -27.6932   -3.9454  -22.3384 H   0  0  0  0  0  0  0  0  0  0  0  0
  -28.1384   -5.6321  -22.2407 H   0  0  0  0  0  0  0  0  0  0  0  0
  -26.0659   -5.0802  -19.1469 H   0  0  0  0  0  0  0  0  0  0  0  0
  -27.2304   -3.9271  -19.8347 H   0  0  0  0  0  0  0  0  0  0  0  0
  -27.6166   -5.6600  -19.7272 H   0  0  0  0  0  0  0  0  0  0  0  0
  -25.0005   -1.7796  -31.0704 H   0  0  0  0  0  0  0  0  0  0  0  0
  -23.2654   -1.5944  -30.6664 H   0  0  0  0  0  0  0  0  0  0  0  0
  -24.5044   -1.4242  -29.3951 H   0  0  0  0  0  0  0  0  0  0  0  0
  -23.1454   -4.2665  -32.0928 H   0  0  0  0  0  0  0  0  0  0  0  0
  -22.6527   -5.7053  -31.1853 H   0  0  0  0  0  0  0  0  0  0  0  0
  -24.1187   -4.6428  -20.9737 H   0  0  0  0  0  0  0  0  0  0  0  0
  -25.1929   -3.2287  -21.1795 H   0  0  0  0  0  0  0  0  0  0  0  0
  -25.4229   -3.8679  -23.4689 H   0  0  0  0  0  0  0  0  0  0  0  0
  -26.5786   -7.0698  -21.2168 H   0  0  0  0  0  0  0  0  0  0  0  0
  1  3  1  0  0  0  0
  1 10  2  0  0  0  0
  2  4  2  0  0  0  0
  2 10  1  0  0  0  0
  3 14  2  0  0  0  0
  4 14  1  0  0  0  0
  5  9  1  0  0  0  0
  5 12  2  0  0  0  0
  6 11  1  0  0  0  0
  6 13  2  0  0  0  0
  7  8  2  0  0  0  0
  7 32  1  0  0  0  0
  8 33  1  0  0  0  0
  9 11  2  0  0  0  0
  9 25  1  0  0  0  0
 10 29  1  0  0  0  0
 11 34  1  0  0  0  0
 12 13  1  0  0  0  0
 12 37  1  0  0  0  0
 13 38  1  0  0  0  0
 14 39  1  0  0  0  0
 15 16  1  0  0  0  0
 15 32  2  0  0  0  0
 15 33  1  0  0  0  0
 16 19  2  0  0  0  0
 17 18  2  0  0  0  0
 17 19  1  0  0  0  0
 18 33  1  0  0  0  0
 19 34  1  0  0  0  0
 20 23  1  0  0  0  0
 20 25  1  0  0  0  0
 21 24  1  0  0  0  0
 21 25  1  0  0  0  0
 22 25  1  0  0  0  0
 22 34  1  0  0  0  0
 23 35  1  0  0  0  0
 24 35  1  0  0  0  0
 26 31  1  0  0  0  0
 27 31  1  0  0  0  0
 28 37  1  0  0  0  0
 29 38  1  0  0  0  0
 30 31  1  0  0  0  0
 30 35  1  0  0  0  0
 31 36  1  0  0  0  0
  1 40  1  0  0  0  0
  2 41  1  0  0  0  0
  3 42  1  0  0  0  0
  4 43  1  0  0  0  0
  5 44  1  0  0  0  0
  6 45  1  0  0  0  0
  7 46  1  0  0  0  0
  8 47  1  0  0  0  0
 16 48  1  0  0  0  0
 17 49  1  0  0  0  0
 18 50  1  0  0  0  0
 20 51  1  0  0  0  0
 20 52  1  0  0  0  0
 21 53  1  0  0  0  0
 21 54  1  0  0  0  0
 22 55  1  0  0  0  0
 22 56  1  0  0  0  0
 23 57  1  0  0  0  0
 23 58  1  0  0  0  0
 24 59  1  0  0  0  0
 24 60  1  0  0  0  0
 26 61  1  0  0  0  0
 26 62  1  0  0  0  0
 26 63  1  0  0  0  0
 27 64  1  0  0  0  0
 27 65  1  0  0  0  0
 27 66  1  0  0  0  0
 28 67  1  0  0  0  0
 28 68  1  0  0  0  0
 28 69  1  0  0  0  0
 29 70  1  0  0  0  0
 29 71  1  0  0  0  0
 30 72  1  0  0  0  0
 30 73  1  0  0  0  0
 35 74  1  0  0  0  0
 36 75  1  0  0  0  0
M  CHG  1  35   1
M  END
> <SMILES>
COc1cc2c(cc1OCc1ccc(cc1)F)N(CC12CCN(CC1)CC(C)(C)O)c1ccn2ccnc2c1

> <FORMATTED_ID>
H3D-015206

> <MOLFORMULA>
C31H35FN4O3

> <Exact Mass>
530.27

> <XLogP>
6.26

> <TPSA_NOPS>
62.5

> <s_m_source_file>
ligprep_h3d.sdf

> <i_m_source_file_index>
5412

> <i_lp_mmshare_version>
55123

> <i_f3d_flags>
0

> <s_epik_input>
W2NIXTFbY0hdYyhGKVtjSF1bY0hdYzFbQ0gyXU9jKGMoW2NIXTIpT1tDSDNdKVtjSF1jKE4oW0NIMl0zKWMoW2NIXVtjSF00KVtjSF1jKG40NSluW2NIXVtjSF01KWMyQzM2W0NIMl1bQ0gyXU4oW0NIMl1bQ0gyXTYpW0NIMl1DKFtDSDNdKShbQ0gzXSlbT0hd

> <s_epik_cmdline>
J2VwaWtfcHl0aG9uJywgJy1waHQnLCAnMC41JywgJy1waCcsICc3LjUnLCAnLXRuJywgJzgnLCAnLW1hJywgJzUwMCcsICctaW1hZScsICc8aW5maWxlLm1hZT4nLCAnLW9tYWUnLCAnPG91dGZpbGUubWFlPic=

> <r_lp_tautomer_probability>
1

> <r_epik_Ionization_Penalty>
0.448663

> <r_epik_Ionization_Penalty_Charging>
0.448663

> <r_epik_Ionization_Penalty_Neutral>
4.49167e-08

> <r_epik_State_Penalty>
0.472867

> <r_epik_Charging_Adjusted_Penalty>
0.921529

> <i_epik_Tot_Q>
1

> <i_epik_Tot_abs_Q>
1

> <s_lp_Force_Field>
S-OPLS

> <r_lp_Energy>
68.8346

> <b_lp_Chiralities_Consistent>
1

> <s_lp_Variant>
ligprep_h3d.sdf:5412-2

> <ROCS_ShapeQuery>
_7L13

> <ROCS_TanimotoCombo>
0.726 

> <ROCS_ShapeTanimoto>
0.639 

> <ROCS_ColorTanimoto>
0.087 

> <ROCS_RefTversky>
0.810 

> <ROCS_RefColorTversky>
0.200 

> <ROCS_RefTverskyCombo>
1.010 

> <ROCS_FitTversky>
0.752 

> <ROCS_FitColorTversky>
0.134 

> <ROCS_FitTverskyCombo>
0.886 

> <ROCS_ColorScore>
-1.850

> <ROCS_Overlap>
1350.319

> <ROCS_Rank>
120                 

$$$$
ligprep_h3d.sdf:1332_422
  -OEChem-08212117123D

 54 59  0     1  0  0  0  0  0999 V2000
  -20.9478   -5.1090  -29.4936 C   0  0  0  0  0  0  0  0  0  0  0  0
  -21.7348   -4.3647  -30.3749 C   0  0  0  0  0  0  0  0  0  0  0  0
  -21.0773   -4.8777  -28.1026 C   0  0  0  0  0  0  0  0  0  0  0  0
  -22.0026   -3.9499  -27.5698 C   0  0  0  0  0  0  0  0  0  0  0  0
  -22.6096   -3.4385  -29.8510 C   0  0  0  0  0  0  0  0  0  0  0  0
  -22.7739   -3.1972  -28.4869 C   0  0  0  0  0  0  0  0  0  0  0  0
  -21.9231   -4.2548  -31.7652 C   0  0  0  0  0  0  0  0  0  0  0  0
  -21.2207   -5.0317  -32.8026 C   0  0  0  0  0  0  0  0  0  0  0  0
  -20.4903   -6.6172  -33.9725 C   0  0  0  0  0  0  0  0  0  0  0  0
  -19.2495   -6.0478  -24.9961 C   0  0  0  0  0  0  0  0  0  0  0  0
  -18.9474   -3.7747  -26.1746 C   0  0  0  0  0  0  0  0  0  0  0  0
  -17.0019   -5.2395  -25.6832 C   0  0  0  0  0  0  0  0  0  0  0  0
  -24.3767   -4.3306  -24.0603 C   0  0  0  0  0  0  0  0  0  0  0  0
  -20.2013   -5.6841  -27.1813 C   0  0  0  0  0  0  0  0  0  0  0  0
  -23.1295   -2.8573  -25.6439 C   0  0  0  0  0  0  0  0  0  0  0  0
  -23.4627   -3.1487  -24.1831 C   0  0  2  0  0  0  0  0  0  0  0  0
  -21.2332   -4.4698  -25.2200 C   0  0  2  0  0  0  0  0  0  0  0  0
  -21.0913   -3.5268  -23.9899 C   0  0  2  0  0  0  0  0  0  0  0  0
  -19.8912   -4.9459  -25.8552 C   0  0  0  0  0  0  0  0  0  0  0  0
  -20.3075   -8.0170  -34.3760 C   0  0  0  0  0  0  0  0  0  0  0  0
  -20.1257   -3.9823  -22.9024 C   0  0  0  0  0  0  0  0  0  0  0  0
  -22.8382   -3.3336  -32.0815 N   0  0  0  0  0  0  0  0  0  0  0  0
  -20.4826   -4.4789  -33.7366 N   0  0  0  0  0  0  0  0  0  0  0  0
  -20.0022   -5.5219  -34.5063 N   0  0  0  0  0  0  0  0  0  0  0  0
  -17.8698   -6.1442  -25.0887 N   0  0  0  0  0  0  0  0  0  0  0  0
  -17.5980   -4.0909  -26.1837 N   0  0  0  0  0  0  0  0  0  0  0  0
  -22.1262   -3.7825  -26.1883 N   0  0  3  0  0  0  0  0  0  0  0  0
  -24.1727   -5.2917  -25.0221 N   0  0  0  0  0  0  0  0  0  0  0  0
  -19.9108   -6.8518  -24.3375 O   0  0  0  0  0  0  0  0  0  0  0  0
  -19.3456   -2.6473  -26.4674 O   0  0  0  0  0  0  0  0  0  0  0  0
  -15.7844   -5.4239  -25.7271 O   0  0  0  0  0  0  0  0  0  0  0  0
  -25.2125   -4.4191  -23.1642 O   0  0  0  0  0  0  0  0  0  0  0  0
  -23.2701   -2.8165  -30.8656 O   0  0  0  0  0  0  0  0  0  0  0  0
  -21.2758   -6.3893  -32.8845 O   0  0  0  0  0  0  0  0  0  0  0  0
  -22.3575   -3.3880  -23.3335 O   0  0  0  0  0  0  0  0  0  0  0  0
  -23.5816   -2.1945  -28.1237 F   0  0  0  0  0  0  0  0  0  0  0  0
  -20.2423   -5.8453  -29.8684 H   0  0  0  0  0  0  0  0  0  0  0  0
  -20.7167   -6.6342  -26.9870 H   0  0  0  0  0  0  0  0  0  0  0  0
  -19.2630   -5.9332  -27.6942 H   0  0  0  0  0  0  0  0  0  0  0  0
  -24.0451   -2.9601  -26.2660 H   0  0  0  0  0  0  0  0  0  0  0  0
  -22.8851   -1.7841  -25.7148 H   0  0  0  0  0  0  0  0  0  0  0  0
  -24.0600   -2.2677  -23.7517 H   0  0  0  0  0  0  0  0  0  0  0  0
  -21.7953   -5.3569  -24.8906 H   0  0  0  0  0  0  0  0  0  0  0  0
  -20.7705   -2.5175  -24.3055 H   0  0  0  0  0  0  0  0  0  0  0  0
  -19.4335   -8.4721  -33.8755 H   0  0  0  0  0  0  0  0  0  0  0  0
  -21.1870   -8.6435  -34.1350 H   0  0  0  0  0  0  0  0  0  0  0  0
  -20.1547   -8.1249  -35.4665 H   0  0  0  0  0  0  0  0  0  0  0  0
  -20.3991   -4.9785  -22.5541 H   0  0  0  0  0  0  0  0  0  0  0  0
  -20.1600   -3.2915  -22.0599 H   0  0  0  0  0  0  0  0  0  0  0  0
  -19.1090   -4.0116  -23.2948 H   0  0  0  0  0  0  0  0  0  0  0  0
  -17.4412   -6.9393  -24.6243 H   0  0  0  0  0  0  0  0  0  0  0  0
  -16.9767   -3.4059  -26.6032 H   0  0  0  0  0  0  0  0  0  0  0  0
  -23.4491   -5.1394  -25.7169 H   0  0  0  0  0  0  0  0  0  0  0  0
  -24.7168   -6.1473  -25.0649 H   0  0  0  0  0  0  0  0  0  0  0  0
  1  2  2  0  0  0  0
  1  3  1  0  0  0  0
  2  5  1  0  0  0  0
  2  7  1  0  0  0  0
  3  4  2  0  0  0  0
  3 14  1  0  0  0  0
  4  6  1  0  0  0  0
  4 27  1  0  0  0  0
  5  6  2  0  0  0  0
  5 33  1  0  0  0  0
  6 36  1  0  0  0  0
  7  8  1  0  0  0  0
  7 22  2  0  0  0  0
  8 23  2  0  0  0  0
  8 34  1  0  0  0  0
  9 20  1  0  0  0  0
  9 24  2  0  0  0  0
  9 34  1  0  0  0  0
 10 19  1  0  0  0  0
 10 25  1  0  0  0  0
 10 29  2  0  0  0  0
 11 19  1  0  0  0  0
 11 26  1  0  0  0  0
 11 30  2  0  0  0  0
 12 25  1  0  0  0  0
 12 26  1  0  0  0  0
 12 31  2  0  0  0  0
 13 16  1  0  0  0  0
 13 28  1  0  0  0  0
 13 32  2  0  0  0  0
 14 19  1  0  0  0  0
 15 16  1  0  0  0  0
 15 27  1  0  0  0  0
 16 35  1  0  0  0  0
 17 18  1  0  0  0  0
 17 19  1  0  0  0  0
 17 27  1  0  0  0  0
 18 21  1  0  0  0  0
 18 35  1  0  0  0  0
 22 33  1  0  0  0  0
 23 24  1  0  0  0  0
  1 37  1  0  0  0  0
 14 38  1  0  0  0  0
 14 39  1  0  0  0  0
 15 40  1  0  0  0  0
 15 41  1  0  0  0  0
 16 42  1  0  0  0  0
 17 43  1  0  0  0  0
 18 44  1  0  0  0  0
 20 45  1  0  0  0  0
 20 46  1  0  0  0  0
 20 47  1  0  0  0  0
 21 48  1  0  0  0  0
 21 49  1  0  0  0  0
 21 50  1  0  0  0  0
 25 51  1  0  0  0  0
 26 52  1  0  0  0  0
 28 53  1  0  0  0  0
 28 54  1  0  0  0  0
M  END
> <SMILES>
C[C@@H]1O[C@@H](CN2[C@H]1C1(Cc3cc4c(noc4c(c32)F)-c2nnc(o2)C)C(=O)NC(=O)NC1=O)C(=O)N

> <FORMATTED_ID>
H3D-009067

> <MOLFORMULA>
C21H18FN7O7

> <Exact Mass>
499.13

> <XLogP>
-0.44

> <TPSA_NOPS>
196.4

> <s_m_source_file>
ligprep_h3d.sdf

> <i_m_source_file_index>
1332

> <i_lp_mmshare_version>
55123

> <i_f3d_flags>
0

> <s_epik_input>
Tz1DMVtOSF1DKD1PKVtOSF1DKD1PKUMxMltDQEBIXTNOKFtDSDJdW0NAQEhdKEMoPU8pW05IMl0pT1tDQEhdM1tDSDNdKWM0YyhbQ0gyXTIpW2NIXWM1YyhjNEYpb25jNS1jNm5uYyhvNilbQ0gzXQ==

> <s_epik_cmdline>
J2VwaWtfcHl0aG9uJywgJy1waHQnLCAnMC41JywgJy1waCcsICc3LjUnLCAnLXRuJywgJzgnLCAnLW1hJywgJzUwMCcsICctaW1hZScsICc8aW5maWxlLm1hZT4nLCAnLW9tYWUnLCAnPG91dGZpbGUubWFlPic=

> <r_lp_tautomer_probability>
1

> <r_epik_Ionization_Penalty>
0.401429

> <r_epik_Ionization_Penalty_Charging>
0

> <r_epik_Ionization_Penalty_Neutral>
0.401429

> <r_epik_State_Penalty>
0.400811

> <r_epik_Charging_Adjusted_Penalty>
0.400811

> <i_epik_Tot_Q>
0

> <i_epik_Tot_abs_Q>
0

> <s_lp_Force_Field>
S-OPLS

> <r_lp_Energy>
42.6485

> <b_lp_Chiralities_Consistent>
1

> <s_lp_Variant>
ligprep_h3d.sdf:1332-1

> <ROCS_ShapeQuery>
_7L13

> <ROCS_TanimotoCombo>
0.779 

> <ROCS_ShapeTanimoto>
0.660 

> <ROCS_ColorTanimoto>
0.119 

> <ROCS_RefTversky>
0.810 

> <ROCS_RefColorTversky>
0.298 

> <ROCS_RefTverskyCombo>
1.107 

> <ROCS_FitTversky>
0.781 

> <ROCS_FitColorTversky>
0.166 

> <ROCS_FitTverskyCombo>
0.947 

> <ROCS_ColorScore>
-2.802

> <ROCS_Overlap>
1347.232

> <ROCS_Rank>
121                 

$$$$
ligprep_h3d.sdf:2208_1566
  -OEChem-08212117123D

 79 84  0     0  0  0  0  0  0999 V2000
  -21.0406   -5.4592  -23.6083 C   0  0  0  0  0  0  0  0  0  0  0  0
  -15.6460   -5.0526  -27.5096 C   0  0  0  0  0  0  0  0  0  0  0  0
  -21.4488   -9.0300  -35.7958 C   0  0  0  0  0  0  0  0  0  0  0  0
  -24.4815   -5.2603  -25.4533 C   0  0  0  0  0  0  0  0  0  0  0  0
  -23.6259   -3.8534  -23.6853 C   0  0  0  0  0  0  0  0  0  0  0  0
  -16.3364   -4.5853  -28.6230 C   0  0  0  0  0  0  0  0  0  0  0  0
  -22.2614   -8.2910  -34.9360 C   0  0  0  0  0  0  0  0  0  0  0  0
  -25.7213   -5.3072  -24.8159 C   0  0  0  0  0  0  0  0  0  0  0  0
  -24.8658   -3.9002  -23.0480 C   0  0  0  0  0  0  0  0  0  0  0  0
  -16.3168   -5.2875  -26.3083 C   0  0  0  0  0  0  0  0  0  0  0  0
  -20.2168   -8.5180  -36.2030 C   0  0  0  0  0  0  0  0  0  0  0  0
  -20.6102   -6.5279  -34.8909 C   0  0  0  0  0  0  0  0  0  0  0  0
  -23.4337   -4.5334  -24.8879 C   0  0  0  0  0  0  0  0  0  0  0  0
  -17.7114   -4.3253  -28.5683 C   0  0  0  0  0  0  0  0  0  0  0  0
  -25.9135   -4.6272  -23.6133 C   0  0  0  0  0  0  0  0  0  0  0  0
  -21.8421   -7.0399  -34.4837 C   0  0  0  0  0  0  0  0  0  0  0  0
  -17.6992   -5.0356  -26.2391 C   0  0  0  0  0  0  0  0  0  0  0  0
  -18.3802   -4.5400  -27.3524 C   0  0  0  0  0  0  0  0  0  0  0  0
  -19.7975   -7.2669  -35.7507 C   0  0  0  0  0  0  0  0  0  0  0  0
  -19.7408   -4.8759  -25.6144 C   0  0  0  0  0  0  0  0  0  0  0  0
  -22.0194   -3.9354  -26.9157 C   0  0  0  0  0  0  0  0  0  0  0  0
  -21.0013   -4.9275  -24.9345 C   0  0  0  0  0  0  0  0  0  0  0  0
  -22.1176   -4.4835  -25.5641 C   0  0  0  0  0  0  0  0  0  0  0  0
  -20.8459   -3.8760  -27.5780 C   0  0  0  0  0  0  0  0  0  0  0  0
  -18.3288   -3.9929  -29.8351 C   0  0  0  0  0  0  0  0  0  0  0  0
  -22.3088   -4.7960  -29.9974 C   0  0  0  0  0  0  0  0  0  0  0  0
  -21.5448   -2.6245  -31.0327 C   0  0  0  0  0  0  0  0  0  0  0  0
  -23.4476   -4.8668  -31.0049 C   0  0  0  0  0  0  0  0  0  0  0  0
  -22.6882   -2.7087  -32.0342 C   0  0  0  0  0  0  0  0  0  0  0  0
  -21.8760   -3.3532  -29.7287 C   0  0  0  0  0  0  0  0  0  0  0  0
  -18.2285   -5.4828  -35.6473 C   0  0  0  0  0  0  0  0  0  0  0  0
  -18.3042   -2.4372  -31.6506 C   0  0  0  0  0  0  0  0  0  0  0  0
  -22.7171   -6.2444  -33.5587 C   0  0  0  0  0  0  0  0  0  0  0  0
  -22.1232   -4.8993  -33.1528 C   0  0  0  0  0  0  0  0  0  0  0  0
  -27.2400   -4.6759  -22.9337 C   0  0  0  0  0  0  0  0  0  0  0  0
  -21.0727   -5.8910  -22.5320 N   0  0  0  0  0  0  0  0  0  0  0  0
  -18.5472   -5.2288  -25.1864 N   0  0  0  0  0  0  0  0  0  0  0  0
  -19.6994   -4.3843  -26.9265 N   0  0  0  0  0  0  0  0  0  0  0  0
  -20.7531   -3.3161  -28.8223 N   0  0  0  0  0  0  0  0  0  0  0  0
  -23.0869   -4.1432  -32.2785 N   0  3  0  0  0  0  0  0  0  0  0  0
  -19.2493   -4.6376  -30.3633 O   0  0  0  0  0  0  0  0  0  0  0  0
  -18.5951   -6.7676  -36.1477 O   0  0  0  0  0  0  0  0  0  0  0  0
  -17.7754   -2.8697  -30.3924 O   0  0  0  0  0  0  0  0  0  0  0  0
  -28.1700   -5.4216  -23.6008 F   0  0  0  0  0  0  0  0  0  0  0  0
  -27.1913   -5.2089  -21.6770 F   0  0  0  0  0  0  0  0  0  0  0  0
  -27.7999   -3.4399  -22.7856 F   0  0  0  0  0  0  0  0  0  0  0  0
  -14.5801   -5.2518  -27.5783 H   0  0  0  0  0  0  0  0  0  0  0  0
  -21.7751  -10.0042  -36.1475 H   0  0  0  0  0  0  0  0  0  0  0  0
  -24.3468   -5.7957  -26.3901 H   0  0  0  0  0  0  0  0  0  0  0  0
  -22.8190   -3.2822  -23.2324 H   0  0  0  0  0  0  0  0  0  0  0  0
  -15.7886   -4.4453  -29.5533 H   0  0  0  0  0  0  0  0  0  0  0  0
  -23.2197   -8.6979  -34.6245 H   0  0  0  0  0  0  0  0  0  0  0  0
  -26.5321   -5.8756  -25.2638 H   0  0  0  0  0  0  0  0  0  0  0  0
  -25.0069   -3.3676  -22.1112 H   0  0  0  0  0  0  0  0  0  0  0  0
  -15.7784   -5.6696  -25.4464 H   0  0  0  0  0  0  0  0  0  0  0  0
  -19.5885   -9.0985  -36.8728 H   0  0  0  0  0  0  0  0  0  0  0  0
  -20.2808   -5.5526  -34.5401 H   0  0  0  0  0  0  0  0  0  0  0  0
  -22.9262   -3.5234  -27.3514 H   0  0  0  0  0  0  0  0  0  0  0  0
  -22.6378   -5.2465  -29.0568 H   0  0  0  0  0  0  0  0  0  0  0  0
  -21.4632   -5.3904  -30.3502 H   0  0  0  0  0  0  0  0  0  0  0  0
  -20.6319   -3.0300  -31.4766 H   0  0  0  0  0  0  0  0  0  0  0  0
  -21.3422   -1.5722  -30.8094 H   0  0  0  0  0  0  0  0  0  0  0  0
  -23.6995   -5.9057  -31.2725 H   0  0  0  0  0  0  0  0  0  0  0  0
  -24.3497   -4.3835  -30.5982 H   0  0  0  0  0  0  0  0  0  0  0  0
  -23.5757   -2.1844  -31.6457 H   0  0  0  0  0  0  0  0  0  0  0  0
  -22.4216   -2.2658  -33.0080 H   0  0  0  0  0  0  0  0  0  0  0  0
  -22.7107   -2.8226  -29.2320 H   0  0  0  0  0  0  0  0  0  0  0  0
  -17.2482   -5.2037  -36.0412 H   0  0  0  0  0  0  0  0  0  0  0  0
  -18.1997   -5.5107  -34.5552 H   0  0  0  0  0  0  0  0  0  0  0  0
  -18.9711   -4.7499  -35.9717 H   0  0  0  0  0  0  0  0  0  0  0  0
  -17.7770   -1.5379  -31.9785 H   0  0  0  0  0  0  0  0  0  0  0  0
  -19.3719   -2.2288  -31.5459 H   0  0  0  0  0  0  0  0  0  0  0  0
  -18.1604   -3.2304  -32.3881 H   0  0  0  0  0  0  0  0  0  0  0  0
  -23.6778   -6.0615  -34.0582 H   0  0  0  0  0  0  0  0  0  0  0  0
  -22.9574   -6.8311  -32.6625 H   0  0  0  0  0  0  0  0  0  0  0  0
  -21.9478   -4.2715  -34.0315 H   0  0  0  0  0  0  0  0  0  0  0  0
  -21.1918   -4.9996  -32.5875 H   0  0  0  0  0  0  0  0  0  0  0  0
  -19.8886   -2.8935  -29.0565 H   0  0  0  0  0  0  0  0  0  0  0  0
  -23.9867   -4.0943  -32.8397 H   0  0  0  0  0  0  0  0  0  0  0  0
  1 22  1  0  0  0  0
  1 36  3  0  0  0  0
  2  6  2  0  0  0  0
  2 10  1  0  0  0  0
  3  7  1  0  0  0  0
  3 11  2  0  0  0  0
  4  8  1  0  0  0  0
  4 13  2  0  0  0  0
  5  9  2  0  0  0  0
  5 13  1  0  0  0  0
  6 14  1  0  0  0  0
  7 16  2  0  0  0  0
  8 15  2  0  0  0  0
  9 15  1  0  0  0  0
 10 17  2  0  0  0  0
 11 19  1  0  0  0  0
 12 16  1  0  0  0  0
 12 19  2  0  0  0  0
 13 23  1  0  0  0  0
 14 18  2  0  0  0  0
 14 25  1  0  0  0  0
 15 35  1  0  0  0  0
 16 33  1  0  0  0  0
 17 18  1  0  0  0  0
 17 37  1  0  0  0  0
 18 38  1  0  0  0  0
 19 42  1  0  0  0  0
 20 22  1  0  0  0  0
 20 37  2  0  0  0  0
 20 38  1  0  0  0  0
 21 23  1  0  0  0  0
 21 24  2  0  0  0  0
 22 23  2  0  0  0  0
 24 38  1  0  0  0  0
 24 39  1  0  0  0  0
 25 41  2  0  0  0  0
 25 43  1  0  0  0  0
 26 28  1  0  0  0  0
 26 30  1  0  0  0  0
 27 29  1  0  0  0  0
 27 30  1  0  0  0  0
 28 40  1  0  0  0  0
 29 40  1  0  0  0  0
 30 39  1  0  0  0  0
 31 42  1  0  0  0  0
 32 43  1  0  0  0  0
 33 34  1  0  0  0  0
 34 40  1  0  0  0  0
 35 44  1  0  0  0  0
 35 45  1  0  0  0  0
 35 46  1  0  0  0  0
  2 47  1  0  0  0  0
  3 48  1  0  0  0  0
  4 49  1  0  0  0  0
  5 50  1  0  0  0  0
  6 51  1  0  0  0  0
  7 52  1  0  0  0  0
  8 53  1  0  0  0  0
  9 54  1  0  0  0  0
 10 55  1  0  0  0  0
 11 56  1  0  0  0  0
 12 57  1  0  0  0  0
 21 58  1  0  0  0  0
 26 59  1  0  0  0  0
 26 60  1  0  0  0  0
 27 61  1  0  0  0  0
 27 62  1  0  0  0  0
 28 63  1  0  0  0  0
 28 64  1  0  0  0  0
 29 65  1  0  0  0  0
 29 66  1  0  0  0  0
 30 67  1  0  0  0  0
 31 68  1  0  0  0  0
 31 69  1  0  0  0  0
 31 70  1  0  0  0  0
 32 71  1  0  0  0  0
 32 72  1  0  0  0  0
 32 73  1  0  0  0  0
 33 74  1  0  0  0  0
 33 75  1  0  0  0  0
 34 76  1  0  0  0  0
 34 77  1  0  0  0  0
 39 78  1  0  0  0  0
 40 79  1  0  0  0  0
M  CHG  1  40   1
M  END
> <SMILES>
COC(=O)c1cccc2nc3c(c(cc(n3c12)NC1CCN(CC1)CCc1cccc(c1)OC)-c1ccc(cc1)C(F)(F)F)C#N

> <FORMATTED_ID>
H3D-004829

> <MOLFORMULA>
C35H32F3N5O3

> <Exact Mass>
627.25

> <XLogP>
8.24

> <TPSA_NOPS>
91.9

> <s_m_source_file>
ligprep_h3d.sdf

> <i_m_source_file_index>
2208

> <i_lp_mmshare_version>
55123

> <i_f3d_flags>
0

> <s_epik_input>
W0NIM11PQyg9TyljKFtjSF1bY0hdW2NIXTEpYyhjMTIpbjNjKG4yKWMoQyNOKWMoLWM0W2NIXVtjSF1jKEMoRikoRilGKVtjSF1bY0hdNClbY0hdYzNbTkhdW0NIXTVbQ0gyXVtDSDJdTihbQ0gyXVtDSDJdNSlbQ0gyXVtDSDJdYzZbY0hdW2NIXVtjSF1jKFtjSF02KU9bQ0gzXQ==

> <s_epik_cmdline>
J2VwaWtfcHl0aG9uJywgJy1waHQnLCAnMC41JywgJy1waCcsICc3LjUnLCAnLXRuJywgJzgnLCAnLW1hJywgJzUwMCcsICctaW1hZScsICc8aW5maWxlLm1hZT4nLCAnLW9tYWUnLCAnPG91dGZpbGUubWFlPic=

> <r_lp_tautomer_probability>
1

> <r_epik_Ionization_Penalty>
0.00486974

> <r_epik_Ionization_Penalty_Charging>
0.00453757

> <r_epik_Ionization_Penalty_Neutral>
0.000332169

> <r_epik_State_Penalty>
-0

> <r_epik_Charging_Adjusted_Penalty>
0.00453757

> <i_epik_Tot_Q>
1

> <i_epik_Tot_abs_Q>
1

> <s_epik_Chemistry_Notes>
This compound has an ester and may undergo hydrolysis at high or low pH.

> <s_lp_Force_Field>
S-OPLS

> <r_lp_Energy>
94.2319

> <b_lp_Chiralities_Consistent>
1

> <s_lp_Variant>
ligprep_h3d.sdf:2208-1

> <ROCS_ShapeQuery>
_7L13

> <ROCS_TanimotoCombo>
0.691 

> <ROCS_ShapeTanimoto>
0.561 

> <ROCS_ColorTanimoto>
0.130 

> <ROCS_RefTversky>
0.810 

> <ROCS_RefColorTversky>
0.275 

> <ROCS_RefTverskyCombo>
1.084 

> <ROCS_FitTversky>
0.647 

> <ROCS_FitColorTversky>
0.197 

> <ROCS_FitTverskyCombo>
0.844 

> <ROCS_ColorScore>
-2.530

> <ROCS_Overlap>
1363.520

> <ROCS_Rank>
122                 

$$$$
ligprep_h3d.sdf:1081_270
  -OEChem-08212117123D

 58 63  0     1  0  0  0  0  0999 V2000
  -20.7465   -4.7411  -29.5776 C   0  0  0  0  0  0  0  0  0  0  0  0
  -21.6790   -4.0884  -30.3867 C   0  0  0  0  0  0  0  0  0  0  0  0
  -20.8926   -4.6636  -28.1716 C   0  0  0  0  0  0  0  0  0  0  0  0
  -21.9730   -3.9881  -27.5564 C   0  0  0  0  0  0  0  0  0  0  0  0
  -22.7051   -3.3980  -29.7799 C   0  0  0  0  0  0  0  0  0  0  0  0
  -22.8876   -3.3148  -28.3994 C   0  0  0  0  0  0  0  0  0  0  0  0
  -21.9104   -3.8931  -31.7610 C   0  0  0  0  0  0  0  0  0  0  0  0
  -18.9554   -3.3179  -26.1913 C   0  0  0  0  0  0  0  0  0  0  0  0
  -18.7990   -5.6556  -25.1740 C   0  0  0  0  0  0  0  0  0  0  0  0
  -19.6126   -6.7957  -36.0599 C   0  0  0  0  0  0  0  0  0  0  0  0
  -16.8595   -4.2585  -25.8464 C   0  0  0  0  0  0  0  0  0  0  0  0
  -19.8699   -5.3734  -27.3257 C   0  0  0  0  0  0  0  0  0  0  0  0
  -19.5220   -8.0575  -35.2539 C   0  0  0  0  0  0  0  0  0  0  0  0
  -20.4730   -7.7721  -34.1163 C   0  0  0  0  0  0  0  0  0  0  0  0
  -23.4322   -3.8602  -25.5549 C   0  0  0  0  0  0  0  0  0  0  0  0
  -21.0520   -4.5275  -25.2664 C   0  0  2  0  0  0  0  0  0  0  0  0
  -20.3397   -6.2744  -33.9559 C   0  0  2  0  0  0  0  0  0  0  0  0
  -23.3394   -3.0938  -24.2369 C   0  0  1  0  0  0  0  0  0  0  0  0
  -21.0631   -3.6882  -23.9510 C   0  0  2  0  0  0  0  0  0  0  0  0
  -19.6580   -4.6765  -25.9605 C   0  0  2  0  0  0  0  0  0  0  0  0
  -24.6772   -3.0929  -23.5087 C   0  0  0  0  0  0  0  0  0  0  0  0
  -20.1383   -4.1862  -22.8477 C   0  0  0  0  0  0  0  0  0  0  0  0
  -21.5720   -5.6232  -33.3573 C   0  0  0  0  0  0  0  0  0  0  0  0
  -22.9894   -3.1390  -31.9914 N   0  0  0  0  0  0  0  0  0  0  0  0
  -17.6431   -3.3515  -26.4297 N   0  5  0  0  0  0  0  0  0  0  0  0
  -17.4574   -5.3337  -25.1937 N   0  0  0  0  0  0  0  0  0  0  0  0
  -22.0949   -3.9521  -26.1636 N   0  0  1  0  0  0  0  0  0  0  0  0
  -19.6124   -2.2797  -26.2690 O   0  0  0  0  0  0  0  0  0  0  0  0
  -19.2336   -6.6727  -24.6379 O   0  0  0  0  0  0  0  0  0  0  0  0
  -19.2507   -6.6664  -37.2189 O   0  0  0  0  0  0  0  0  0  0  0  0
  -15.6273   -4.1964  -25.8747 O   0  0  0  0  0  0  0  0  0  0  0  0
  -23.4890   -2.8237  -30.7331 O   0  0  0  0  0  0  0  0  0  0  0  0
  -20.1320   -5.7903  -35.2899 O   0  0  0  0  0  0  0  0  0  0  0  0
  -22.3831   -3.7179  -23.3823 O   0  0  0  0  0  0  0  0  0  0  0  0
  -21.2063   -4.3479  -32.8062 O   0  0  0  0  0  0  0  0  0  0  0  0
  -23.8608   -2.5185  -27.9412 F   0  0  0  0  0  0  0  0  0  0  0  0
  -19.9195   -5.2888  -30.0203 H   0  0  0  0  0  0  0  0  0  0  0  0
  -20.2143   -6.4076  -27.1865 H   0  0  0  0  0  0  0  0  0  0  0  0
  -18.9179   -5.4347  -27.8701 H   0  0  0  0  0  0  0  0  0  0  0  0
  -19.8431   -8.9228  -35.8382 H   0  0  0  0  0  0  0  0  0  0  0  0
  -18.4939   -8.1856  -34.9036 H   0  0  0  0  0  0  0  0  0  0  0  0
  -21.4918   -8.0450  -34.4190 H   0  0  0  0  0  0  0  0  0  0  0  0
  -20.2328   -8.3250  -33.2039 H   0  0  0  0  0  0  0  0  0  0  0  0
  -23.7783   -4.8854  -25.3666 H   0  0  0  0  0  0  0  0  0  0  0  0
  -24.2000   -3.3909  -26.1665 H   0  0  0  0  0  0  0  0  0  0  0  0
  -21.4153   -5.5338  -25.0092 H   0  0  0  0  0  0  0  0  0  0  0  0
  -19.4558   -6.0141  -33.3615 H   0  0  0  0  0  0  0  0  0  0  0  0
  -23.0409   -2.0528  -24.4174 H   0  0  0  0  0  0  0  0  0  0  0  0
  -20.8073   -2.6405  -24.1472 H   0  0  0  0  0  0  0  0  0  0  0  0
  -24.9978   -4.1169  -23.3164 H   0  0  0  0  0  0  0  0  0  0  0  0
  -25.4323   -2.5943  -24.1165 H   0  0  0  0  0  0  0  0  0  0  0  0
  -24.5841   -2.5671  -22.5583 H   0  0  0  0  0  0  0  0  0  0  0  0
  -20.3583   -5.2291  -22.6190 H   0  0  0  0  0  0  0  0  0  0  0  0
  -20.2782   -3.5895  -21.9463 H   0  0  0  0  0  0  0  0  0  0  0  0
  -19.0993   -4.1058  -23.1675 H   0  0  0  0  0  0  0  0  0  0  0  0
  -21.9860   -6.2465  -32.5591 H   0  0  0  0  0  0  0  0  0  0  0  0
  -22.3363   -5.4694  -34.1249 H   0  0  0  0  0  0  0  0  0  0  0  0
  -16.8373   -5.9491  -24.6749 H   0  0  0  0  0  0  0  0  0  0  0  0
  1  2  2  0  0  0  0
  1  3  1  0  0  0  0
  2  5  1  0  0  0  0
  2  7  1  0  0  0  0
  3  4  2  0  0  0  0
  3 12  1  0  0  0  0
  4  6  1  0  0  0  0
  4 27  1  0  0  0  0
  5  6  2  0  0  0  0
  5 32  1  0  0  0  0
  6 36  1  0  0  0  0
  7 24  2  0  0  0  0
  7 35  1  0  0  0  0
  8 20  1  0  0  0  0
  8 25  1  0  0  0  0
  8 28  2  0  0  0  0
  9 20  1  0  0  0  0
  9 26  1  0  0  0  0
  9 29  2  0  0  0  0
 10 13  1  0  0  0  0
 10 30  2  0  0  0  0
 10 33  1  0  0  0  0
 11 25  1  0  0  0  0
 11 26  1  0  0  0  0
 11 31  2  0  0  0  0
 12 20  1  0  0  0  0
 13 14  1  0  0  0  0
 14 17  1  0  0  0  0
 15 18  1  0  0  0  0
 15 27  1  0  0  0  0
 16 19  1  0  0  0  0
 16 20  1  0  0  0  0
 16 27  1  0  0  0  0
 17 23  1  0  0  0  0
 17 33  1  0  0  0  0
 18 21  1  0  0  0  0
 18 34  1  0  0  0  0
 19 22  1  0  0  0  0
 19 34  1  0  0  0  0
 23 35  1  0  0  0  0
 24 32  1  0  0  0  0
  1 37  1  0  0  0  0
 12 38  1  0  0  0  0
 12 39  1  0  0  0  0
 13 40  1  0  0  0  0
 13 41  1  0  0  0  0
 14 42  1  0  0  0  0
 14 43  1  0  0  0  0
 15 44  1  0  0  0  0
 15 45  1  0  0  0  0
 16 46  1  0  0  0  0
 17 47  1  0  0  0  0
 18 48  1  0  0  0  0
 19 49  1  0  0  0  0
 21 50  1  0  0  0  0
 21 51  1  0  0  0  0
 21 52  1  0  0  0  0
 22 53  1  0  0  0  0
 22 54  1  0  0  0  0
 22 55  1  0  0  0  0
 23 56  1  0  0  0  0
 23 57  1  0  0  0  0
 26 58  1  0  0  0  0
M  CHG  1  25  -1
M  END
> <SMILES>
C[C@@H]1CN2[C@H]([C@H](C)O1)C1(Cc3cc4c(noc4c(c32)F)OC[C@H]2CCC(=O)O2)C(=O)NC(=O)NC1=O

> <FORMATTED_ID>
H3D-006689

> <MOLFORMULA>
C23H23FN4O8

> <Exact Mass>
502.15

> <XLogP>
0.83

> <TPSA_NOPS>
149.6

> <s_m_source_file>
ligprep_h3d.sdf

> <i_m_source_file_index>
1081

> <i_lp_mmshare_version>
55123

> <i_f3d_flags>
0

> <s_epik_input>
Tz1DMVtOSF1DKD1PKVtOSF1DKD1PKUMxMltDQEBIXTNOKFtDSDJdW0NAQEhdKFtDSDNdKU9bQ0BIXTNbQ0gzXSljNGMoW0NIMl0yKVtjSF1jNWMoYzRGKW9uYzVPW0NIMl1bQ0BIXTZbQ0gyXVtDSDJdQyg9TylPNg==

> <s_epik_cmdline>
J2VwaWtfcHl0aG9uJywgJy1waHQnLCAnMC41JywgJy1waCcsICc3LjUnLCAnLXRuJywgJzgnLCAnLW1hJywgJzUwMCcsICctaW1hZScsICc8aW5maWxlLm1hZT4nLCAnLW9tYWUnLCAnPG91dGZpbGUubWFlPic=

> <r_lp_tautomer_probability>
1

> <r_epik_Ionization_Penalty>
0.455391

> <r_epik_Ionization_Penalty_Charging>
0.455373

> <r_epik_Ionization_Penalty_Neutral>
1.74353e-05

> <r_epik_State_Penalty>
0.458483

> <r_epik_Charging_Adjusted_Penalty>
0.913857

> <i_epik_Tot_Q>
-1

> <i_epik_Tot_abs_Q>
1

> <s_epik_Chemistry_Notes>
This compound has an ester and may undergo hydrolysis at high or low pH.

> <s_lp_Force_Field>
S-OPLS

> <r_lp_Energy>
47.6383

> <b_lp_Chiralities_Consistent>
1

> <s_lp_Variant>
ligprep_h3d.sdf:1081-2

> <ROCS_ShapeQuery>
_7L13

> <ROCS_TanimotoCombo>
0.775 

> <ROCS_ShapeTanimoto>
0.665 

> <ROCS_ColorTanimoto>
0.110 

> <ROCS_RefTversky>
0.810 

> <ROCS_RefColorTversky>
0.266 

> <ROCS_RefTverskyCombo>
1.076 

> <ROCS_FitTversky>
0.788 

> <ROCS_FitColorTversky>
0.159 

> <ROCS_FitTverskyCombo>
0.947 

> <ROCS_ColorScore>
-2.490

> <ROCS_Overlap>
1346.289

> <ROCS_Rank>
123                 

$$$$
ligprep_h3d.sdf:2408_1203
  -OEChem-08212117123D

 99103  0     1  0  0  0  0  0999 V2000
  -25.9530   -4.7676  -24.1755 C   0  0  0  0  0  0  0  0  0  0  0  0
  -24.0917   -4.0118  -22.8333 C   0  0  0  0  0  0  0  0  0  0  0  0
  -25.0732   -5.1123  -25.2015 C   0  0  0  0  0  0  0  0  0  0  0  0
  -23.2119   -4.3566  -23.8593 C   0  0  0  0  0  0  0  0  0  0  0  0
  -25.4622   -4.2173  -22.9914 C   0  0  0  0  0  0  0  0  0  0  0  0
  -23.7027   -4.9069  -25.0434 C   0  0  0  0  0  0  0  0  0  0  0  0
  -21.5151   -5.2796  -28.7387 C   0  0  0  0  0  0  0  0  0  0  0  0
  -17.5942   -6.2050  -25.7351 C   0  0  0  0  0  0  0  0  0  0  0  0
  -20.9041   -5.3082  -27.5485 C   0  0  0  0  0  0  0  0  0  0  0  0
  -16.4991   -5.4899  -25.4142 C   0  0  0  0  0  0  0  0  0  0  0  0
  -21.5794   -4.6812  -26.3672 C   0  0  0  0  0  0  0  0  0  0  0  0
  -23.8031   -2.8655  -27.7295 C   0  0  0  0  0  0  0  0  0  0  0  0
  -21.0064   -4.4619  -34.9659 C   0  0  0  0  0  0  0  0  0  0  0  0
  -18.8953   -8.2468  -35.9143 C   0  0  0  0  0  0  0  0  0  0  0  0
  -21.8114   -4.4481  -33.6547 C   0  0  0  0  0  0  0  0  0  0  0  0
  -19.2757   -7.8728  -34.4708 C   0  0  0  0  0  0  0  0  0  0  0  0
  -19.5124   -6.1651  -30.2336 C   0  0  0  0  0  0  0  0  0  0  0  0
  -22.9742   -4.6543  -30.5620 C   0  0  0  0  0  0  0  0  0  0  0  0
  -20.9946   -5.8596  -30.0311 C   0  0  2  0  0  0  0  0  0  0  0  0
  -22.8338   -4.5886  -29.0250 C   0  0  2  0  0  0  0  0  0  0  0  0
  -20.5214   -5.8678  -35.3059 C   0  0  1  0  0  0  0  0  0  0  0  0
  -19.8716   -5.9058  -32.7777 C   0  0  1  0  0  0  0  0  0  0  0  0
  -20.0544   -6.1145  -36.7662 C   0  0  1  0  0  0  0  0  0  0  0  0
  -19.8161   -7.6332  -36.9719 C   0  0  2  0  0  0  0  0  0  0  0  0
  -19.2834   -6.7800  -31.6294 C   0  0  2  0  0  0  0  0  0  0  0  0
  -19.4596   -6.3480  -34.2572 C   0  0  1  0  0  0  0  0  0  0  0  0
  -21.3869   -5.4919  -32.5621 C   0  0  1  0  0  0  0  0  0  0  0  0
  -21.5283   -4.8579  -31.0937 C   0  0  1  0  0  0  0  0  0  0  0  0
  -26.4030   -3.8486  -21.8944 C   0  0  0  0  0  0  0  0  0  0  0  0
  -15.1086   -6.0393  -25.2665 C   0  0  0  0  0  0  0  0  0  0  0  0
  -16.6051   -4.0070  -25.1733 C   0  0  0  0  0  0  0  0  0  0  0  0
  -23.3130   -1.7643  -26.8389 C   0  0  0  0  0  0  0  0  0  0  0  0
  -21.0496   -5.5830  -37.8061 C   0  0  0  0  0  0  0  0  0  0  0  0
  -18.0660   -5.6768  -34.5045 C   0  0  0  0  0  0  0  0  0  0  0  0
  -22.3284   -6.7275  -32.7036 C   0  0  0  0  0  0  0  0  0  0  0  0
  -20.7911   -3.4748  -30.9789 C   0  0  0  0  0  0  0  0  0  0  0  0
  -19.0085   -5.7194  -25.8984 C   0  0  0  0  0  0  0  0  0  0  0  0
  -19.5183   -5.8650  -27.3390 C   0  0  0  0  0  0  0  0  0  0  0  0
  -22.8095   -5.2569  -26.0844 N   0  0  0  0  0  0  0  0  0  0  0  0
  -20.9992   -3.7982  -25.7440 O   0  0  0  0  0  0  0  0  0  0  0  0
  -24.9243   -3.3512  -27.6650 O   0  0  0  0  0  0  0  0  0  0  0  0
  -21.0509   -8.3522  -36.9221 O   0  0  0  0  0  0  0  0  0  0  0  0
  -19.8496   -8.0874  -31.6462 O   0  0  0  0  0  0  0  0  0  0  0  0
  -22.8176   -3.2321  -28.6055 O   0  0  0  0  0  0  0  0  0  0  0  0
  -27.0196   -4.9291  -24.3081 H   0  0  0  0  0  0  0  0  0  0  0  0
  -23.7007   -3.5829  -21.9144 H   0  0  0  0  0  0  0  0  0  0  0  0
  -25.4667   -5.5409  -26.1198 H   0  0  0  0  0  0  0  0  0  0  0  0
  -22.1457   -4.1912  -23.7260 H   0  0  0  0  0  0  0  0  0  0  0  0
  -17.4704   -7.2730  -25.9130 H   0  0  0  0  0  0  0  0  0  0  0  0
  -21.6554   -4.0567  -35.7487 H   0  0  0  0  0  0  0  0  0  0  0  0
  -20.1609   -3.7696  -34.8888 H   0  0  0  0  0  0  0  0  0  0  0  0
  -17.8610   -7.9466  -36.1143 H   0  0  0  0  0  0  0  0  0  0  0  0
  -18.9182   -9.3408  -35.9974 H   0  0  0  0  0  0  0  0  0  0  0  0
  -21.7716   -3.4218  -33.2840 H   0  0  0  0  0  0  0  0  0  0  0  0
  -22.8706   -4.5975  -33.9040 H   0  0  0  0  0  0  0  0  0  0  0  0
  -20.2007   -8.4002  -34.2115 H   0  0  0  0  0  0  0  0  0  0  0  0
  -18.4911   -8.2647  -33.8132 H   0  0  0  0  0  0  0  0  0  0  0  0
  -18.9050   -5.2605  -30.1189 H   0  0  0  0  0  0  0  0  0  0  0  0
  -19.1795   -6.8744  -29.4661 H   0  0  0  0  0  0  0  0  0  0  0  0
  -23.6094   -5.5126  -30.8029 H   0  0  0  0  0  0  0  0  0  0  0  0
  -23.4476   -3.7607  -30.9826 H   0  0  0  0  0  0  0  0  0  0  0  0
  -21.5258   -6.8165  -30.1091 H   0  0  0  0  0  0  0  0  0  0  0  0
  -23.6716   -5.0999  -28.5423 H   0  0  0  0  0  0  0  0  0  0  0  0
  -21.4118   -6.4974  -35.2155 H   0  0  0  0  0  0  0  0  0  0  0  0
  -19.3359   -4.9578  -32.6532 H   0  0  0  0  0  0  0  0  0  0  0  0
  -19.1125   -5.5864  -36.9488 H   0  0  0  0  0  0  0  0  0  0  0  0
  -19.3804   -7.8124  -37.9622 H   0  0  0  0  0  0  0  0  0  0  0  0
  -18.2037   -6.8966  -31.7768 H   0  0  0  0  0  0  0  0  0  0  0  0
  -26.5486   -4.6972  -21.2148 H   0  0  0  0  0  0  0  0  0  0  0  0
  -26.0236   -2.9983  -21.3130 H   0  0  0  0  0  0  0  0  0  0  0  0
  -27.3816   -3.5498  -22.2924 H   0  0  0  0  0  0  0  0  0  0  0  0
  -14.5856   -5.9984  -26.2277 H   0  0  0  0  0  0  0  0  0  0  0  0
  -14.4976   -5.5022  -24.5392 H   0  0  0  0  0  0  0  0  0  0  0  0
  -15.1510   -7.0851  -24.9439 H   0  0  0  0  0  0  0  0  0  0  0  0
  -16.8098   -3.8088  -24.1160 H   0  0  0  0  0  0  0  0  0  0  0  0
  -15.6865   -3.4732  -25.4386 H   0  0  0  0  0  0  0  0  0  0  0  0
  -17.4190   -3.5834  -25.7709 H   0  0  0  0  0  0  0  0  0  0  0  0
  -22.8510   -2.1888  -25.9441 H   0  0  0  0  0  0  0  0  0  0  0  0
  -24.1441   -1.1078  -26.5691 H   0  0  0  0  0  0  0  0  0  0  0  0
  -22.5624   -1.1737  -27.3720 H   0  0  0  0  0  0  0  0  0  0  0  0
  -22.0093   -6.0744  -37.6728 H   0  0  0  0  0  0  0  0  0  0  0  0
  -20.6736   -5.7876  -38.8045 H   0  0  0  0  0  0  0  0  0  0  0  0
  -21.1704   -4.5111  -37.6768 H   0  0  0  0  0  0  0  0  0  0  0  0
  -18.1799   -4.6166  -34.3591 H   0  0  0  0  0  0  0  0  0  0  0  0
  -17.7677   -5.8983  -35.5144 H   0  0  0  0  0  0  0  0  0  0  0  0
  -17.3698   -6.0912  -33.7962 H   0  0  0  0  0  0  0  0  0  0  0  0
  -22.0463   -7.4527  -31.9572 H   0  0  0  0  0  0  0  0  0  0  0  0
  -22.2050   -7.1328  -33.6950 H   0  0  0  0  0  0  0  0  0  0  0  0
  -23.3430   -6.3968  -32.5499 H   0  0  0  0  0  0  0  0  0  0  0  0
  -19.7899   -3.6089  -31.3453 H   0  0  0  0  0  0  0  0  0  0  0  0
  -20.7923   -3.1911  -29.9425 H   0  0  0  0  0  0  0  0  0  0  0  0
  -21.3340   -2.7666  -31.5778 H   0  0  0  0  0  0  0  0  0  0  0  0
  -19.7013   -6.2050  -25.2057 H   0  0  0  0  0  0  0  0  0  0  0  0
  -19.0243   -4.6545  -25.6332 H   0  0  0  0  0  0  0  0  0  0  0  0
  -19.4868   -6.9238  -27.6289 H   0  0  0  0  0  0  0  0  0  0  0  0
  -18.8218   -5.3516  -28.0140 H   0  0  0  0  0  0  0  0  0  0  0  0
  -23.1129   -6.0366  -26.6644 H   0  0  0  0  0  0  0  0  0  0  0  0
  -20.8355   -9.2759  -37.1181 H   0  0  0  0  0  0  0  0  0  0  0  0
  -19.3932   -8.5954  -30.9576 H   0  0  0  0  0  0  0  0  0  0  0  0
  1  3  1  0  0  0  0
  1  5  2  0  0  0  0
  2  4  2  0  0  0  0
  2  5  1  0  0  0  0
  3  6  2  0  0  0  0
  4  6  1  0  0  0  0
  5 29  1  0  0  0  0
  6 39  1  0  0  0  0
  7  9  2  0  0  0  0
  7 19  1  0  0  0  0
  7 20  1  0  0  0  0
  8 10  2  0  0  0  0
  8 37  1  0  0  0  0
  9 11  1  0  0  0  0
  9 38  1  0  0  0  0
 10 30  1  0  0  0  0
 10 31  1  0  0  0  0
 11 39  1  0  0  0  0
 11 40  2  0  0  0  0
 12 32  1  0  0  0  0
 12 41  2  0  0  0  0
 12 44  1  0  0  0  0
 13 15  1  0  0  0  0
 13 21  1  0  0  0  0
 14 16  1  0  0  0  0
 14 24  1  0  0  0  0
 15 27  1  0  0  0  0
 16 26  1  0  0  0  0
 17 19  1  0  0  0  0
 17 25  1  0  0  0  0
 18 20  1  0  0  0  0
 18 28  1  0  0  0  0
 19 28  1  0  0  0  0
 20 44  1  0  0  0  0
 21 23  1  0  0  0  0
 21 26  1  0  0  0  0
 22 25  1  0  0  0  0
 22 26  1  0  0  0  0
 22 27  1  0  0  0  0
 23 24  1  0  0  0  0
 23 33  1  0  0  0  0
 24 42  1  0  0  0  0
 25 43  1  0  0  0  0
 26 34  1  0  0  0  0
 27 28  1  0  0  0  0
 27 35  1  0  0  0  0
 28 36  1  0  0  0  0
 37 38  1  0  0  0  0
  1 45  1  0  0  0  0
  2 46  1  0  0  0  0
  3 47  1  0  0  0  0
  4 48  1  0  0  0  0
  8 49  1  0  0  0  0
 13 50  1  0  0  0  0
 13 51  1  0  0  0  0
 14 52  1  0  0  0  0
 14 53  1  0  0  0  0
 15 54  1  0  0  0  0
 15 55  1  0  0  0  0
 16 56  1  0  0  0  0
 16 57  1  0  0  0  0
 17 58  1  0  0  0  0
 17 59  1  0  0  0  0
 18 60  1  0  0  0  0
 18 61  1  0  0  0  0
 19 62  1  0  0  0  0
 20 63  1  0  0  0  0
 21 64  1  0  0  0  0
 22 65  1  0  0  0  0
 23 66  1  0  0  0  0
 24 67  1  0  0  0  0
 25 68  1  0  0  0  0
 29 69  1  0  0  0  0
 29 70  1  0  0  0  0
 29 71  1  0  0  0  0
 30 72  1  0  0  0  0
 30 73  1  0  0  0  0
 30 74  1  0  0  0  0
 31 75  1  0  0  0  0
 31 76  1  0  0  0  0
 31 77  1  0  0  0  0
 32 78  1  0  0  0  0
 32 79  1  0  0  0  0
 32 80  1  0  0  0  0
 33 81  1  0  0  0  0
 33 82  1  0  0  0  0
 33 83  1  0  0  0  0
 34 84  1  0  0  0  0
 34 85  1  0  0  0  0
 34 86  1  0  0  0  0
 35 87  1  0  0  0  0
 35 88  1  0  0  0  0
 35 89  1  0  0  0  0
 36 90  1  0  0  0  0
 36 91  1  0  0  0  0
 36 92  1  0  0  0  0
 37 93  1  0  0  0  0
 37 94  1  0  0  0  0
 38 95  1  0  0  0  0
 38 96  1  0  0  0  0
 39 97  1  0  0  0  0
 42 98  1  0  0  0  0
 43 99  1  0  0  0  0
M  END
> <SMILES>
C[C@@H]1[C@H](O)CC[C@@]2(C)[C@H]1CC[C@@]1(C)[C@H]2[C@H](O)C[C@H]2/C(=C(\CCC=C(C)C)C(=O)Nc3ccc(cc3)C)[C@H](C[C@@]21C)OC(=O)C

> <FORMATTED_ID>
H3D-005613

> <MOLFORMULA>
C38H55NO5

> <Exact Mass>
605.41

> <XLogP>
7.21

> <TPSA_NOPS>
95.9

> <s_m_source_file>
ligprep_h3d.sdf

> <i_m_source_file_index>
2408

> <i_lp_mmshare_version>
55123

> <i_f3d_flags>
0

> <s_epik_input>
W0NIMl0xW0NIMl1bQ0BASF0oW09IXSlbQ0BASF0oW0NIM10pW0NAQEhdKFtDQF0xMltDSDNdKVtDSDJdW0NIMl1bQ0BAXTMoW0NIM10pW0NASF0yW0NASF0oW09IXSlbQ0gyXVtDQEBIXTRbQ0BdMyhbQ0gzXSlbQ0gyXVtDQEhdKE9DKD1PKVtDSDNdKUNcND1DKFxbQ0gyXVtDSDJdW0NIXT1DKFtDSDNdKVtDSDNdKUMoPU8pW05IXWM1W2NIXVtjSF1jKFtDSDNdKVtjSF1bY0hdNQ==

> <s_epik_cmdline>
J2VwaWtfcHl0aG9uJywgJy1waHQnLCAnMC41JywgJy1waCcsICc3LjUnLCAnLXRuJywgJzgnLCAnLW1hJywgJzUwMCcsICctaW1hZScsICc8aW5maWxlLm1hZT4nLCAnLW9tYWUnLCAnPG91dGZpbGUubWFlPic=

> <r_lp_tautomer_probability>
1

> <r_epik_Ionization_Penalty>
0.000512807

> <r_epik_Ionization_Penalty_Charging>
0

> <r_epik_Ionization_Penalty_Neutral>
0.000512807

> <r_epik_State_Penalty>
-0

> <r_epik_Charging_Adjusted_Penalty>
0

> <i_epik_Tot_Q>
0

> <i_epik_Tot_abs_Q>
0

> <s_epik_Chemistry_Notes>
This compound has an ester and may undergo hydrolysis at high or low pH.

> <s_lp_Force_Field>
S-OPLS

> <r_lp_Energy>
86.8543

> <b_lp_Chiralities_Consistent>
1

> <s_lp_Variant>
ligprep_h3d.sdf:2408-1

> <ROCS_ShapeQuery>
_7L13

> <ROCS_TanimotoCombo>
0.702 

> <ROCS_ShapeTanimoto>
0.605 

> <ROCS_ColorTanimoto>
0.097 

> <ROCS_RefTversky>
0.809 

> <ROCS_RefColorTversky>
0.219 

> <ROCS_RefTverskyCombo>
1.029 

> <ROCS_FitTversky>
0.706 

> <ROCS_FitColorTversky>
0.147 

> <ROCS_FitTverskyCombo>
0.853 

> <ROCS_ColorScore>
-2.028

> <ROCS_Overlap>
1355.060

> <ROCS_Rank>
124                 

$$$$
ligprep_h3d.sdf:4999_1242
  -OEChem-08212117123D

 66 70  0     1  0  0  0  0  0999 V2000
  -18.9909   -7.6792  -36.3592 C   0  0  0  0  0  0  0  0  0  0  0  0
  -19.3382   -6.3952  -36.7790 C   0  0  0  0  0  0  0  0  0  0  0  0
  -19.5257   -8.1957  -35.1790 C   0  0  0  0  0  0  0  0  0  0  0  0
  -20.2203   -5.6276  -36.0185 C   0  0  0  0  0  0  0  0  0  0  0  0
  -20.4078   -7.4281  -34.4185 C   0  0  0  0  0  0  0  0  0  0  0  0
  -23.2543   -4.2219  -24.2292 C   0  0  0  0  0  0  0  0  0  0  0  0
  -25.4292   -4.8924  -25.0399 C   0  0  0  0  0  0  0  0  0  0  0  0
  -23.7403   -4.2259  -22.9218 C   0  0  0  0  0  0  0  0  0  0  0  0
  -25.9153   -4.8963  -23.7324 C   0  0  0  0  0  0  0  0  0  0  0  0
  -17.5543   -5.8105  -25.5850 C   0  0  0  0  0  0  0  0  0  0  0  0
  -17.6824   -3.4009  -25.7055 C   0  0  0  0  0  0  0  0  0  0  0  0
  -16.2274   -4.4539  -24.0896 C   0  0  0  0  0  0  0  0  0  0  0  0
  -20.7551   -6.1440  -34.8382 C   0  0  0  0  0  0  0  0  0  0  0  0
  -18.0820   -4.6563  -26.1638 C   0  0  0  0  0  0  0  0  0  0  0  0
  -24.0987   -4.5551  -25.2883 C   0  0  0  0  0  0  0  0  0  0  0  0
  -25.0708   -4.5631  -22.6734 C   0  0  0  0  0  0  0  0  0  0  0  0
  -16.6270   -5.7093  -24.5479 C   0  0  0  0  0  0  0  0  0  0  0  0
  -16.7551   -3.2997  -24.6684 C   0  0  0  0  0  0  0  0  0  0  0  0
  -21.9854   -4.0314  -31.9046 C   0  0  0  0  0  0  0  0  0  0  0  0
  -22.4916   -4.0041  -29.4773 C   0  0  0  0  0  0  0  0  0  0  0  0
  -19.5855   -5.8879  -27.8574 C   0  0  0  0  0  0  0  0  0  0  0  0
  -19.4756   -3.8047  -28.1581 C   0  0  0  0  0  0  0  0  0  0  0  0
  -20.4303   -5.0712  -30.1914 C   0  0  0  0  0  0  0  0  0  0  0  0
  -21.9457   -4.8197  -28.3130 C   0  0  1  0  0  0  0  0  0  0  0  0
  -20.4530   -4.8997  -28.6700 C   0  0  0  0  0  0  0  0  0  0  0  0
  -21.7093   -5.3140  -34.0149 C   0  0  0  0  0  0  0  0  0  0  0  0
  -22.2739   -4.2228  -26.9572 C   0  0  0  0  0  0  0  0  0  0  0  0
  -21.0050   -4.4573  -32.9682 C   0  0  1  0  0  0  0  0  0  0  0  0
  -19.0134   -4.7575  -27.2064 N   0  0  0  0  0  0  0  0  0  0  0  0
  -21.6395   -4.3607  -30.6040 N   0  0  0  0  0  0  0  0  0  0  0  0
  -23.6120   -4.5511  -26.5976 N   0  0  0  0  0  0  0  0  0  0  0  0
  -20.4460   -3.2340  -33.5951 N   0  3  0  0  0  0  0  0  0  0  0  0
  -23.0137   -3.4260  -32.2124 O   0  0  0  0  0  0  0  0  0  0  0  0
  -25.5376   -4.5669  -21.4179 F   0  0  0  0  0  0  0  0  0  0  0  0
  -16.1191   -6.8179  -23.9937 F   0  0  0  0  0  0  0  0  0  0  0  0
  -16.3699   -2.0942  -24.2297 F   0  0  0  0  0  0  0  0  0  0  0  0
  -18.3051   -8.2773  -36.9522 H   0  0  0  0  0  0  0  0  0  0  0  0
  -18.9228   -5.9933  -37.6985 H   0  0  0  0  0  0  0  0  0  0  0  0
  -19.2563   -9.1957  -34.8524 H   0  0  0  0  0  0  0  0  0  0  0  0
  -20.4852   -4.6280  -36.3532 H   0  0  0  0  0  0  0  0  0  0  0  0
  -20.8194   -7.8386  -33.5003 H   0  0  0  0  0  0  0  0  0  0  0  0
  -22.2157   -3.9579  -24.4115 H   0  0  0  0  0  0  0  0  0  0  0  0
  -26.0961   -5.1534  -25.8576 H   0  0  0  0  0  0  0  0  0  0  0  0
  -23.0831   -3.9667  -22.0971 H   0  0  0  0  0  0  0  0  0  0  0  0
  -26.9511   -5.1585  -23.5385 H   0  0  0  0  0  0  0  0  0  0  0  0
  -17.8580   -6.7935  -25.9350 H   0  0  0  0  0  0  0  0  0  0  0  0
  -18.0866   -2.4951  -26.1500 H   0  0  0  0  0  0  0  0  0  0  0  0
  -15.5043   -4.3759  -23.2831 H   0  0  0  0  0  0  0  0  0  0  0  0
  -23.5065   -4.3210  -29.7357 H   0  0  0  0  0  0  0  0  0  0  0  0
  -22.4946   -2.9251  -29.3108 H   0  0  0  0  0  0  0  0  0  0  0  0
  -20.1258   -6.5379  -27.1563 H   0  0  0  0  0  0  0  0  0  0  0  0
  -18.8496   -6.4816  -28.4114 H   0  0  0  0  0  0  0  0  0  0  0  0
  -18.7015   -3.4828  -28.8569 H   0  0  0  0  0  0  0  0  0  0  0  0
  -19.9467   -2.9395  -27.6833 H   0  0  0  0  0  0  0  0  0  0  0  0
  -19.5725   -4.5648  -30.6466 H   0  0  0  0  0  0  0  0  0  0  0  0
  -20.4559   -6.1124  -30.5252 H   0  0  0  0  0  0  0  0  0  0  0  0
  -22.4124   -5.8545  -28.3508 H   0  0  0  0  0  0  0  0  0  0  0  0
  -22.4590   -5.9634  -33.5424 H   0  0  0  0  0  0  0  0  0  0  0  0
  -22.2816   -4.6746  -34.7011 H   0  0  0  0  0  0  0  0  0  0  0  0
  -21.5698   -4.6428  -26.2411 H   0  0  0  0  0  0  0  0  0  0  0  0
  -22.1527   -3.1443  -27.0420 H   0  0  0  0  0  0  0  0  0  0  0  0
  -20.1779   -4.9713  -32.4776 H   0  0  0  0  0  0  0  0  0  0  0  0
  -24.2772   -4.8026  -27.3335 H   0  0  0  0  0  0  0  0  0  0  0  0
  -21.1178   -2.8170  -34.2481 H   0  0  0  0  0  0  0  0  0  0  0  0
  -19.5894   -3.4488  -34.1167 H   0  0  0  0  0  0  0  0  0  0  0  0
  -20.2163   -2.5305  -32.8851 H   0  0  0  0  0  0  0  0  0  0  0  0
  1  2  2  0  0  0  0
  1  3  1  0  0  0  0
  2  4  1  0  0  0  0
  3  5  2  0  0  0  0
  4 13  2  0  0  0  0
  5 13  1  0  0  0  0
  6  8  1  0  0  0  0
  6 15  2  0  0  0  0
  7  9  2  0  0  0  0
  7 15  1  0  0  0  0
  8 16  2  0  0  0  0
  9 16  1  0  0  0  0
 10 14  2  0  0  0  0
 10 17  1  0  0  0  0
 11 14  1  0  0  0  0
 11 18  2  0  0  0  0
 12 17  2  0  0  0  0
 12 18  1  0  0  0  0
 13 26  1  0  0  0  0
 14 29  1  0  0  0  0
 15 31  1  0  0  0  0
 16 34  1  0  0  0  0
 17 35  1  0  0  0  0
 18 36  1  0  0  0  0
 19 28  1  0  0  0  0
 19 30  1  0  0  0  0
 19 33  2  0  0  0  0
 20 24  1  0  0  0  0
 20 30  1  0  0  0  0
 21 25  1  0  0  0  0
 21 29  1  0  0  0  0
 22 25  1  0  0  0  0
 22 29  1  0  0  0  0
 23 25  1  0  0  0  0
 23 30  1  0  0  0  0
 24 25  1  0  0  0  0
 24 27  1  0  0  0  0
 26 28  1  0  0  0  0
 27 31  1  0  0  0  0
 28 32  1  0  0  0  0
  1 37  1  0  0  0  0
  2 38  1  0  0  0  0
  3 39  1  0  0  0  0
  4 40  1  0  0  0  0
  5 41  1  0  0  0  0
  6 42  1  0  0  0  0
  7 43  1  0  0  0  0
  8 44  1  0  0  0  0
  9 45  1  0  0  0  0
 10 46  1  0  0  0  0
 11 47  1  0  0  0  0
 12 48  1  0  0  0  0
 20 49  1  0  0  0  0
 20 50  1  0  0  0  0
 21 51  1  0  0  0  0
 21 52  1  0  0  0  0
 22 53  1  0  0  0  0
 22 54  1  0  0  0  0
 23 55  1  0  0  0  0
 23 56  1  0  0  0  0
 24 57  1  0  0  0  0
 26 58  1  0  0  0  0
 26 59  1  0  0  0  0
 27 60  1  0  0  0  0
 27 61  1  0  0  0  0
 28 62  1  0  0  0  0
 31 63  1  0  0  0  0
 32 64  1  0  0  0  0
 32 65  1  0  0  0  0
 32 66  1  0  0  0  0
M  CHG  1  32   1
M  END
> <SMILES>
N[C@H](Cc1ccccc1)C(=O)N1CC(CNc2ccc(cc2)F)C2(C1)CN(C2)c1cc(cc(c1)F)F

> <FORMATTED_ID>
H3D-008976

> <MOLFORMULA>
C28H29F3N4O

> <Exact Mass>
494.23

> <XLogP>
3.64

> <TPSA_NOPS>
61.6

> <s_m_source_file>
ligprep_h3d.sdf

> <i_m_source_file_index>
4999

> <i_lp_mmshare_version>
55123

> <i_f3d_flags>
0

> <s_epik_input>
W2NIXTFbY0hdW2NIXVtjSF1bY0hdYzFbQ0gyXVtDQEBIXShbTkgyXSlDKD1PKU4oW0NIMl0yKVtDSDJdW0NASF0oW0NIMl1bTkhdYzNbY0hdW2NIXWMoRilbY0hdW2NIXTMpQzI0W0NIMl1OKFtDSDJdNCljNVtjSF1jKEYpW2NIXWMoRilbY0hdNQ==

> <s_epik_cmdline>
J2VwaWtfcHl0aG9uJywgJy1waHQnLCAnMC41JywgJy1waCcsICc3LjUnLCAnLXRuJywgJzgnLCAnLW1hJywgJzUwMCcsICctaW1hZScsICc8aW5maWxlLm1hZT4nLCAnLW9tYWUnLCAnPG91dGZpbGUubWFlPic=

> <r_epik_Ionization_Penalty>
0.384723

> <r_epik_Ionization_Penalty_Charging>
0.382744

> <r_epik_Ionization_Penalty_Neutral>
0.00197845

> <r_epik_State_Penalty>
0.38092

> <r_epik_Charging_Adjusted_Penalty>
0.763664

> <i_epik_Tot_Q>
1

> <i_epik_Tot_abs_Q>
1

> <s_lp_Force_Field>
S-OPLS

> <r_lp_Energy>
40.0401

> <b_lp_Chiralities_Consistent>
1

> <s_lp_Variant>
ligprep_h3d.sdf:4999-1

> <ROCS_ShapeQuery>
_7L13

> <ROCS_TanimotoCombo>
0.747 

> <ROCS_ShapeTanimoto>
0.687 

> <ROCS_ColorTanimoto>
0.060 

> <ROCS_RefTversky>
0.809 

> <ROCS_RefColorTversky>
0.114 

> <ROCS_RefTverskyCombo>
0.923 

> <ROCS_FitTversky>
0.819 

> <ROCS_FitColorTversky>
0.114 

> <ROCS_FitTverskyCombo>
0.933 

> <ROCS_ColorScore>
-1.027

> <ROCS_Overlap>
1342.791

> <ROCS_Rank>
125                 

$$$$
ligprep_h3d.sdf:5322_1398
  -OEChem-08212117123D

 68 74  0     0  0  0  0  0  0999 V2000
  -18.4261   -6.4300  -35.7776 C   0  0  0  0  0  0  0  0  0  0  0  0
  -19.4013   -7.3338  -35.3562 C   0  0  0  0  0  0  0  0  0  0  0  0
  -18.3792   -5.1484  -35.2292 C   0  0  0  0  0  0  0  0  0  0  0  0
  -20.3299   -6.9558  -34.3863 C   0  0  0  0  0  0  0  0  0  0  0  0
  -19.3078   -4.7704  -34.2593 C   0  0  0  0  0  0  0  0  0  0  0  0
  -22.8814   -4.0514  -29.0012 C   0  0  0  0  0  0  0  0  0  0  0  0
  -20.1742   -4.5312  -29.6117 C   0  0  0  0  0  0  0  0  0  0  0  0
  -14.1309   -4.8078  -26.0704 C   0  0  0  0  0  0  0  0  0  0  0  0
  -14.5147   -5.9108  -26.7959 C   0  0  0  0  0  0  0  0  0  0  0  0
  -21.9504   -4.2774  -27.9944 C   0  0  0  0  0  0  0  0  0  0  0  0
  -20.2831   -5.6741  -33.8379 C   0  0  0  0  0  0  0  0  0  0  0  0
  -20.6022   -4.5148  -28.2892 C   0  0  0  0  0  0  0  0  0  0  0  0
  -22.4486   -4.0590  -30.3264 C   0  0  0  0  0  0  0  0  0  0  0  0
  -21.1032   -4.2987  -30.6299 C   0  0  0  0  0  0  0  0  0  0  0  0
  -16.2386   -4.5882  -26.3499 C   0  0  0  0  0  0  0  0  0  0  0  0
  -17.6172   -4.2290  -26.4060 C   0  0  0  0  0  0  0  0  0  0  0  0
  -18.0588   -6.2553  -27.6859 C   0  0  0  0  0  0  0  0  0  0  0  0
  -16.7623   -6.6006  -27.6383 C   0  0  0  0  0  0  0  0  0  0  0  0
  -18.5142   -5.0168  -27.0446 C   0  0  0  0  0  0  0  0  0  0  0  0
  -22.9258   -3.1307  -25.9566 C   0  0  0  0  0  0  0  0  0  0  0  0
  -22.9525   -5.6599  -26.1618 C   0  0  0  0  0  0  0  0  0  0  0  0
  -23.2330   -3.2558  -24.4638 C   0  0  0  0  0  0  0  0  0  0  0  0
  -23.2990   -5.7730  -24.6748 C   0  0  0  0  0  0  0  0  0  0  0  0
  -20.7080   -4.4192  -25.9859 C   0  0  0  0  0  0  0  0  0  0  0  0
  -25.5460   -4.9269  -22.5147 C   0  0  0  0  0  0  0  0  0  0  0  0
  -26.2194   -4.2334  -23.6659 C   0  0  0  0  0  0  0  0  0  0  0  0
  -22.1824   -4.3650  -26.5041 C   0  0  0  0  0  0  0  0  0  0  0  0
  -24.0197   -4.5301  -24.1469 C   0  0  0  0  0  0  0  0  0  0  0  0
  -23.5349   -2.4653  -31.7177 C   0  0  0  0  0  0  0  0  0  0  0  0
  -21.2818   -5.2668  -32.7947 C   0  0  0  0  0  0  0  0  0  0  0  0
  -15.2006   -3.9935  -25.7976 N   0  0  0  0  0  0  0  0  0  0  0  0
  -15.8668   -5.7713  -26.9758 N   0  0  0  0  0  0  0  0  0  0  0  0
  -19.8344   -4.7202  -27.1266 N   0  0  0  0  0  0  0  0  0  0  0  0
  -24.1645   -4.6364  -22.7201 O   0  0  0  0  0  0  0  0  0  0  0  0
  -25.3234   -4.4567  -24.7532 O   0  0  0  0  0  0  0  0  0  0  0  0
  -23.3477   -3.8227  -31.3232 O   0  0  0  0  0  0  0  0  0  0  0  0
  -20.6834   -4.3067  -31.9274 O   0  0  0  0  0  0  0  0  0  0  0  0
  -17.7023   -6.7250  -36.5318 H   0  0  0  0  0  0  0  0  0  0  0  0
  -19.4373   -8.3322  -35.7823 H   0  0  0  0  0  0  0  0  0  0  0  0
  -17.6193   -4.4449  -35.5562 H   0  0  0  0  0  0  0  0  0  0  0  0
  -21.0864   -7.6665  -34.0642 H   0  0  0  0  0  0  0  0  0  0  0  0
  -19.2637   -3.7697  -33.8377 H   0  0  0  0  0  0  0  0  0  0  0  0
  -23.9234   -3.8608  -28.7640 H   0  0  0  0  0  0  0  0  0  0  0  0
  -19.1373   -4.7261  -29.8672 H   0  0  0  0  0  0  0  0  0  0  0  0
  -13.1362   -4.5589  -25.7306 H   0  0  0  0  0  0  0  0  0  0  0  0
  -13.9622   -6.7540  -27.1873 H   0  0  0  0  0  0  0  0  0  0  0  0
  -17.9283   -3.3078  -25.9228 H   0  0  0  0  0  0  0  0  0  0  0  0
  -18.7797   -6.8844  -28.1969 H   0  0  0  0  0  0  0  0  0  0  0  0
  -16.3777   -7.5037  -28.0964 H   0  0  0  0  0  0  0  0  0  0  0  0
  -23.8705   -2.9958  -26.4954 H   0  0  0  0  0  0  0  0  0  0  0  0
  -22.3432   -2.2191  -26.1276 H   0  0  0  0  0  0  0  0  0  0  0  0
  -22.3746   -6.5447  -26.4684 H   0  0  0  0  0  0  0  0  0  0  0  0
  -23.8865   -5.7072  -26.7416 H   0  0  0  0  0  0  0  0  0  0  0  0
  -22.3075   -3.2377  -23.8800 H   0  0  0  0  0  0  0  0  0  0  0  0
  -23.8078   -2.3778  -24.1495 H   0  0  0  0  0  0  0  0  0  0  0  0
  -23.9317   -6.6600  -24.5284 H   0  0  0  0  0  0  0  0  0  0  0  0
  -22.3893   -5.9564  -24.0858 H   0  0  0  0  0  0  0  0  0  0  0  0
  -20.4025   -3.4828  -25.5061 H   0  0  0  0  0  0  0  0  0  0  0  0
  -20.5850   -5.2168  -25.2411 H   0  0  0  0  0  0  0  0  0  0  0  0
  -25.8458   -4.4968  -21.5528 H   0  0  0  0  0  0  0  0  0  0  0  0
  -25.7167   -6.0060  -22.4977 H   0  0  0  0  0  0  0  0  0  0  0  0
  -27.1790   -4.7002  -23.9133 H   0  0  0  0  0  0  0  0  0  0  0  0
  -26.3694   -3.1636  -23.5009 H   0  0  0  0  0  0  0  0  0  0  0  0
  -24.2764   -2.4169  -32.5189 H   0  0  0  0  0  0  0  0  0  0  0  0
  -22.5840   -2.0502  -32.0611 H   0  0  0  0  0  0  0  0  0  0  0  0
  -23.8917   -1.8916  -30.8590 H   0  0  0  0  0  0  0  0  0  0  0  0
  -22.1721   -4.8257  -33.2558 H   0  0  0  0  0  0  0  0  0  0  0  0
  -21.6021   -6.1329  -32.2055 H   0  0  0  0  0  0  0  0  0  0  0  0
  1  2  2  0  0  0  0
  1  3  1  0  0  0  0
  2  4  1  0  0  0  0
  3  5  2  0  0  0  0
  4 11  2  0  0  0  0
  5 11  1  0  0  0  0
  6 10  1  0  0  0  0
  6 13  2  0  0  0  0
  7 12  1  0  0  0  0
  7 14  2  0  0  0  0
  8  9  2  0  0  0  0
  8 31  1  0  0  0  0
  9 32  1  0  0  0  0
 10 12  2  0  0  0  0
 10 27  1  0  0  0  0
 11 30  1  0  0  0  0
 12 33  1  0  0  0  0
 13 14  1  0  0  0  0
 13 36  1  0  0  0  0
 14 37  1  0  0  0  0
 15 16  1  0  0  0  0
 15 31  2  0  0  0  0
 15 32  1  0  0  0  0
 16 19  2  0  0  0  0
 17 18  2  0  0  0  0
 17 19  1  0  0  0  0
 18 32  1  0  0  0  0
 19 33  1  0  0  0  0
 20 22  1  0  0  0  0
 20 27  1  0  0  0  0
 21 23  1  0  0  0  0
 21 27  1  0  0  0  0
 22 28  1  0  0  0  0
 23 28  1  0  0  0  0
 24 27  1  0  0  0  0
 24 33  1  0  0  0  0
 25 26  1  0  0  0  0
 25 34  1  0  0  0  0
 26 35  1  0  0  0  0
 28 34  1  0  0  0  0
 28 35  1  0  0  0  0
 29 36  1  0  0  0  0
 30 37  1  0  0  0  0
  1 38  1  0  0  0  0
  2 39  1  0  0  0  0
  3 40  1  0  0  0  0
  4 41  1  0  0  0  0
  5 42  1  0  0  0  0
  6 43  1  0  0  0  0
  7 44  1  0  0  0  0
  8 45  1  0  0  0  0
  9 46  1  0  0  0  0
 16 47  1  0  0  0  0
 17 48  1  0  0  0  0
 18 49  1  0  0  0  0
 20 50  1  0  0  0  0
 20 51  1  0  0  0  0
 21 52  1  0  0  0  0
 21 53  1  0  0  0  0
 22 54  1  0  0  0  0
 22 55  1  0  0  0  0
 23 56  1  0  0  0  0
 23 57  1  0  0  0  0
 24 58  1  0  0  0  0
 24 59  1  0  0  0  0
 25 60  1  0  0  0  0
 25 61  1  0  0  0  0
 26 62  1  0  0  0  0
 26 63  1  0  0  0  0
 29 64  1  0  0  0  0
 29 65  1  0  0  0  0
 29 66  1  0  0  0  0
 30 67  1  0  0  0  0
 30 68  1  0  0  0  0
M  END
> <SMILES>
COc1cc2c(cc1OCc1ccccc1)N(CC12CCC2(CC1)OCCO2)c1ccn2ccnc2c1

> <FORMATTED_ID>
H3D-014839

> <MOLFORMULA>
C30H31N3O4

> <Exact Mass>
497.23

> <XLogP>
6.97

> <TPSA_NOPS>
57.5

> <s_m_source_file>
ligprep_h3d.sdf

> <i_m_source_file_index>
5322

> <i_lp_mmshare_version>
55123

> <i_f3d_flags>
0

> <s_epik_input>
W2NIXTFbY0hdW2NIXVtjSF1bY0hdYzFbQ0gyXU9jKGMoW2NIXTIpT1tDSDNdKVtjSF1jKE4oW0NIMl0zKWMoW2NIXVtjSF00KVtjSF1jKG40NSluW2NIXVtjSF01KWMyQzM2W0NIMl1bQ0gyXUM3KFtDSDJdW0NIMl02KU9bQ0gyXVtDSDJdTzc=

> <s_epik_cmdline>
J2VwaWtfcHl0aG9uJywgJy1waHQnLCAnMC41JywgJy1waCcsICc3LjUnLCAnLXRuJywgJzgnLCAnLW1hJywgJzUwMCcsICctaW1hZScsICc8aW5maWxlLm1hZT4nLCAnLW9tYWUnLCAnPG91dGZpbGUubWFlPic=

> <r_lp_tautomer_probability>
1

> <r_epik_Ionization_Penalty>
0.519356

> <r_epik_Ionization_Penalty_Charging>
0.519356

> <r_epik_Ionization_Penalty_Neutral>
1.29379e-08

> <r_epik_State_Penalty>
0.527244

> <r_epik_Charging_Adjusted_Penalty>
1.0466

> <i_epik_Tot_Q>
0

> <i_epik_Tot_abs_Q>
0

> <s_lp_Force_Field>
S-OPLS

> <r_lp_Energy>
57.8776

> <b_lp_Chiralities_Consistent>
1

> <s_lp_Variant>
ligprep_h3d.sdf:5322-2

> <ROCS_ShapeQuery>
_7L13

> <ROCS_TanimotoCombo>
0.732 

> <ROCS_ShapeTanimoto>
0.653 

> <ROCS_ColorTanimoto>
0.079 

> <ROCS_RefTversky>
0.809 

> <ROCS_RefColorTversky>
0.168 

> <ROCS_RefTverskyCombo>
0.977 

> <ROCS_FitTversky>
0.773 

> <ROCS_FitColorTversky>
0.129 

> <ROCS_FitTverskyCombo>
0.902 

> <ROCS_ColorScore>
-1.537

> <ROCS_Overlap>
1346.979

> <ROCS_Rank>
126                 

$$$$
ligprep_h3d.sdf:897_1738
  -OEChem-08212117123D

 59 64  0     1  0  0  0  0  0999 V2000
  -20.7699   -4.8134  -29.5721 C   0  0  0  0  0  0  0  0  0  0  0  0
  -21.6046   -4.0799  -30.4180 C   0  0  0  0  0  0  0  0  0  0  0  0
  -20.9578   -4.7090  -28.1729 C   0  0  0  0  0  0  0  0  0  0  0  0
  -21.9841   -3.9212  -27.5998 C   0  0  0  0  0  0  0  0  0  0  0  0
  -22.5802   -3.2886  -29.8527 C   0  0  0  0  0  0  0  0  0  0  0  0
  -22.8028   -3.1753  -28.4801 C   0  0  0  0  0  0  0  0  0  0  0  0
  -21.7676   -3.8765  -31.8010 C   0  0  0  0  0  0  0  0  0  0  0  0
  -18.9873   -3.5112  -26.1241 C   0  0  0  0  0  0  0  0  0  0  0  0
  -20.4834   -8.1265  -35.6865 C   0  0  0  0  0  0  0  0  0  0  0  0
  -19.0567   -5.8438  -25.0967 C   0  0  0  0  0  0  0  0  0  0  0  0
  -16.9900   -4.6301  -25.7507 C   0  0  0  0  0  0  0  0  0  0  0  0
  -20.0322   -5.4969  -27.2851 C   0  0  0  0  0  0  0  0  0  0  0  0
  -19.4803   -7.0784  -36.1039 C   0  0  0  0  0  0  0  0  0  0  0  0
  -19.5088   -6.0918  -34.9406 C   0  0  0  0  0  0  0  0  0  0  0  0
  -23.2568   -3.1059  -25.6253 C   0  0  0  0  0  0  0  0  0  0  0  0
  -21.2098   -4.5392  -25.2753 C   0  0  2  0  0  0  0  0  0  0  0  0
  -20.9375   -6.1908  -34.4233 C   0  0  2  0  0  0  0  0  0  0  0  0
  -23.6241   -3.5950  -24.2212 C   0  0  1  0  0  0  0  0  0  0  0  0
  -21.2200   -3.7014  -23.9629 C   0  0  2  0  0  0  0  0  0  0  0  0
  -19.8086   -4.8054  -25.9175 C   0  0  2  0  0  0  0  0  0  0  0  0
  -24.4421   -4.8848  -24.2439 C   0  0  0  0  0  0  0  0  0  0  0  0
  -20.2384   -4.1301  -22.8796 C   0  0  0  0  0  0  0  0  0  0  0  0
  -21.0684   -5.8354  -32.9541 C   0  0  0  0  0  0  0  0  0  0  0  0
  -22.7616   -3.0262  -32.0746 N   0  0  0  0  0  0  0  0  0  0  0  0
  -17.6821   -3.6639  -26.3556 N   0  5  0  0  0  0  0  0  0  0  0  0
  -17.6910   -5.6402  -25.0944 N   0  0  0  0  0  0  0  0  0  0  0  0
  -21.2792   -7.5642  -34.6938 N   0  0  0  0  0  0  0  0  0  0  0  0
  -22.1583   -3.8821  -26.2142 N   0  0  3  0  0  0  0  0  0  0  0  0
  -19.5461   -2.4162  -26.1840 O   0  0  0  0  0  0  0  0  0  0  0  0
  -20.5859   -9.2413  -36.1744 O   0  0  0  0  0  0  0  0  0  0  0  0
  -19.5902   -6.8095  -24.5553 O   0  0  0  0  0  0  0  0  0  0  0  0
  -15.7570   -4.6789  -25.7630 O   0  0  0  0  0  0  0  0  0  0  0  0
  -23.2735   -2.6537  -30.8372 O   0  0  0  0  0  0  0  0  0  0  0  0
  -22.5132   -3.7789  -23.3486 O   0  0  0  0  0  0  0  0  0  0  0  0
  -21.0730   -4.4053  -32.8172 O   0  0  0  0  0  0  0  0  0  0  0  0
  -23.7142   -2.2886  -28.0626 F   0  0  0  0  0  0  0  0  0  0  0  0
  -19.9854   -5.4432  -29.9814 H   0  0  0  0  0  0  0  0  0  0  0  0
  -20.4711   -6.4948  -27.1500 H   0  0  0  0  0  0  0  0  0  0  0  0
  -19.0706   -5.6469  -27.7934 H   0  0  0  0  0  0  0  0  0  0  0  0
  -18.4987   -7.5500  -36.2115 H   0  0  0  0  0  0  0  0  0  0  0  0
  -19.7753   -6.6062  -37.0442 H   0  0  0  0  0  0  0  0  0  0  0  0
  -18.7516   -6.3209  -34.1880 H   0  0  0  0  0  0  0  0  0  0  0  0
  -19.3210   -5.0805  -35.3174 H   0  0  0  0  0  0  0  0  0  0  0  0
  -24.1336   -3.2150  -26.2963 H   0  0  0  0  0  0  0  0  0  0  0  0
  -23.0909   -2.0188  -25.5660 H   0  0  0  0  0  0  0  0  0  0  0  0
  -21.6687   -5.5133  -25.0409 H   0  0  0  0  0  0  0  0  0  0  0  0
  -21.6106   -5.5441  -35.0182 H   0  0  0  0  0  0  0  0  0  0  0  0
  -24.3037   -2.8124  -23.7347 H   0  0  0  0  0  0  0  0  0  0  0  0
  -21.0212   -2.6352  -24.1737 H   0  0  0  0  0  0  0  0  0  0  0  0
  -23.8601   -5.6877  -24.6966 H   0  0  0  0  0  0  0  0  0  0  0  0
  -25.3534   -4.7383  -24.8238 H   0  0  0  0  0  0  0  0  0  0  0  0
  -24.7119   -5.1732  -23.2278 H   0  0  0  0  0  0  0  0  0  0  0  0
  -20.3917   -5.1805  -22.6319 H   0  0  0  0  0  0  0  0  0  0  0  0
  -20.3879   -3.5297  -21.9822 H   0  0  0  0  0  0  0  0  0  0  0  0
  -19.2148   -3.9949  -23.2292 H   0  0  0  0  0  0  0  0  0  0  0  0
  -20.2269   -6.2412  -32.3847 H   0  0  0  0  0  0  0  0  0  0  0  0
  -22.0024   -6.2317  -32.5448 H   0  0  0  0  0  0  0  0  0  0  0  0
  -17.1367   -6.2986  -24.5555 H   0  0  0  0  0  0  0  0  0  0  0  0
  -22.0168   -8.0651  -34.2147 H   0  0  0  0  0  0  0  0  0  0  0  0
  1  2  2  0  0  0  0
  1  3  1  0  0  0  0
  2  5  1  0  0  0  0
  2  7  1  0  0  0  0
  3  4  2  0  0  0  0
  3 12  1  0  0  0  0
  4  6  1  0  0  0  0
  4 28  1  0  0  0  0
  5  6  2  0  0  0  0
  5 33  1  0  0  0  0
  6 36  1  0  0  0  0
  7 24  2  0  0  0  0
  7 35  1  0  0  0  0
  8 20  1  0  0  0  0
  8 25  1  0  0  0  0
  8 29  2  0  0  0  0
  9 13  1  0  0  0  0
  9 27  1  0  0  0  0
  9 30  2  0  0  0  0
 10 20  1  0  0  0  0
 10 26  1  0  0  0  0
 10 31  2  0  0  0  0
 11 25  1  0  0  0  0
 11 26  1  0  0  0  0
 11 32  2  0  0  0  0
 12 20  1  0  0  0  0
 13 14  1  0  0  0  0
 14 17  1  0  0  0  0
 15 18  1  0  0  0  0
 15 28  1  0  0  0  0
 16 19  1  0  0  0  0
 16 20  1  0  0  0  0
 16 28  1  0  0  0  0
 17 23  1  0  0  0  0
 17 27  1  0  0  0  0
 18 21  1  0  0  0  0
 18 34  1  0  0  0  0
 19 22  1  0  0  0  0
 19 34  1  0  0  0  0
 23 35  1  0  0  0  0
 24 33  1  0  0  0  0
  1 37  1  0  0  0  0
 12 38  1  0  0  0  0
 12 39  1  0  0  0  0
 13 40  1  0  0  0  0
 13 41  1  0  0  0  0
 14 42  1  0  0  0  0
 14 43  1  0  0  0  0
 15 44  1  0  0  0  0
 15 45  1  0  0  0  0
 16 46  1  0  0  0  0
 17 47  1  0  0  0  0
 18 48  1  0  0  0  0
 19 49  1  0  0  0  0
 21 50  1  0  0  0  0
 21 51  1  0  0  0  0
 21 52  1  0  0  0  0
 22 53  1  0  0  0  0
 22 54  1  0  0  0  0
 22 55  1  0  0  0  0
 23 56  1  0  0  0  0
 23 57  1  0  0  0  0
 26 58  1  0  0  0  0
 27 59  1  0  0  0  0
M  CHG  1  25  -1
M  END
> <SMILES>
C[C@@H]1CN2[C@H]([C@H](C)O1)C1(Cc3cc4c(noc4c(c32)F)OC[C@H]2CCC(=O)N2)C(=O)NC(=O)NC1=O

> <FORMATTED_ID>
H3D-005803

> <MOLFORMULA>
C23H24FN5O7

> <Exact Mass>
501.17

> <XLogP>
0.26

> <TPSA_NOPS>
152.4

> <s_m_source_file>
ligprep_h3d.sdf

> <i_m_source_file_index>
897

> <i_lp_mmshare_version>
55123

> <i_f3d_flags>
0

> <s_epik_input>
Tz1DMVtOSF1DKD1PKVtOSF1DKD1PKUMxMltDQEBIXTNOKFtDSDJdW0NAQEhdKFtDSDNdKU9bQ0BIXTNbQ0gzXSljNGMoW0NIMl0yKVtjSF1jNWMoYzRGKW9uYzVPW0NIMl1bQ0BIXTZbQ0gyXVtDSDJdQyg9TylbTkhdNg==

> <s_epik_cmdline>
J2VwaWtfcHl0aG9uJywgJy1waHQnLCAnMC41JywgJy1waCcsICc3LjUnLCAnLXRuJywgJzgnLCAnLW1hJywgJzUwMCcsICctaW1hZScsICc8aW5maWxlLm1hZT4nLCAnLW9tYWUnLCAnPG91dGZpbGUubWFlPic=

> <r_lp_tautomer_probability>
1

> <r_epik_Ionization_Penalty>
0.455391

> <r_epik_Ionization_Penalty_Charging>
0.455373

> <r_epik_Ionization_Penalty_Neutral>
1.78231e-05

> <r_epik_State_Penalty>
0.458483

> <r_epik_Charging_Adjusted_Penalty>
0.913857

> <i_epik_Tot_Q>
-1

> <i_epik_Tot_abs_Q>
1

> <s_lp_Force_Field>
S-OPLS

> <r_lp_Energy>
44.548

> <b_lp_Chiralities_Consistent>
1

> <s_lp_Variant>
ligprep_h3d.sdf:897-2

> <ROCS_ShapeQuery>
_7L13

> <ROCS_TanimotoCombo>
0.770 

> <ROCS_ShapeTanimoto>
0.665 

> <ROCS_ColorTanimoto>
0.105 

> <ROCS_RefTversky>
0.809 

> <ROCS_RefColorTversky>
0.264 

> <ROCS_RefTverskyCombo>
1.073 

> <ROCS_FitTversky>
0.789 

> <ROCS_FitColorTversky>
0.149 

> <ROCS_FitTverskyCombo>
0.938 

> <ROCS_ColorScore>
-2.483

> <ROCS_Overlap>
1345.288

> <ROCS_Rank>
127                 

$$$$
ligprep_h3d.sdf:2367_128
  -OEChem-08212117123D

100104  0     1  0  0  0  0  0999 V2000
  -24.2350   -3.4408  -23.1521 C   0  0  0  0  0  0  0  0  0  0  0  0
  -25.4497   -4.1124  -23.0135 C   0  0  0  0  0  0  0  0  0  0  0  0
  -23.3665   -3.7772  -24.1904 C   0  0  0  0  0  0  0  0  0  0  0  0
  -25.7958   -5.1205  -23.9133 C   0  0  0  0  0  0  0  0  0  0  0  0
  -23.7126   -4.7853  -25.0902 C   0  0  0  0  0  0  0  0  0  0  0  0
  -24.9272   -5.4570  -24.9517 C   0  0  0  0  0  0  0  0  0  0  0  0
  -21.5024   -5.0609  -28.7805 C   0  0  0  0  0  0  0  0  0  0  0  0
  -17.6380   -6.2306  -25.7890 C   0  0  0  0  0  0  0  0  0  0  0  0
  -20.9036   -5.1592  -27.5879 C   0  0  0  0  0  0  0  0  0  0  0  0
  -16.5258   -5.5625  -25.4283 C   0  0  0  0  0  0  0  0  0  0  0  0
  -21.5715   -4.5646  -26.3857 C   0  0  0  0  0  0  0  0  0  0  0  0
  -23.9498   -2.4179  -28.2451 C   0  0  0  0  0  0  0  0  0  0  0  0
  -20.9125   -3.9885  -34.9617 C   0  0  0  0  0  0  0  0  0  0  0  0
  -18.9030   -7.7887  -36.0579 C   0  0  0  0  0  0  0  0  0  0  0  0
  -21.7289   -4.0081  -33.6578 C   0  0  0  0  0  0  0  0  0  0  0  0
  -19.2858   -7.4669  -34.6025 C   0  0  0  0  0  0  0  0  0  0  0  0
  -19.5124   -5.9389  -30.2967 C   0  0  0  0  0  0  0  0  0  0  0  0
  -22.9259   -4.3144  -30.5864 C   0  0  0  0  0  0  0  0  0  0  0  0
  -20.9870   -5.5992  -30.0929 C   0  0  2  0  0  0  0  0  0  0  0  0
  -22.7979   -4.3198  -29.0469 C   0  0  2  0  0  0  0  0  0  0  0  0
  -20.4653   -5.3918  -35.3590 C   0  0  1  0  0  0  0  0  0  0  0  0
  -19.8403   -5.5588  -32.8298 C   0  0  1  0  0  0  0  0  0  0  0  0
  -19.9920   -5.5883  -36.8250 C   0  0  1  0  0  0  0  0  0  0  0  0
  -19.7958   -7.1030  -37.0950 C   0  0  2  0  0  0  0  0  0  0  0  0
  -19.2883   -6.4990  -31.7162 C   0  0  2  0  0  0  0  0  0  0  0  0
  -19.4275   -5.9481  -34.3239 C   0  0  1  0  0  0  0  0  0  0  0  0
  -21.3450   -5.1104  -32.6085 C   0  0  1  0  0  0  0  0  0  0  0  0
  -21.4816   -4.5370  -31.1149 C   0  0  1  0  0  0  0  0  0  0  0  0
  -15.1532   -6.1584  -25.2937 C   0  0  0  0  0  0  0  0  0  0  0  0
  -16.5911   -4.0890  -25.1236 C   0  0  0  0  0  0  0  0  0  0  0  0
  -23.7420   -1.0161  -27.7575 C   0  0  0  0  0  0  0  0  0  0  0  0
  -20.9618   -4.9832  -37.8485 C   0  0  0  0  0  0  0  0  0  0  0  0
  -18.0129   -5.3079  -34.5304 C   0  0  0  0  0  0  0  0  0  0  0  0
  -22.3204   -6.3106  -32.8114 C   0  0  0  0  0  0  0  0  0  0  0  0
  -20.7058   -3.1824  -30.9338 C   0  0  0  0  0  0  0  0  0  0  0  0
  -26.5444   -7.0757  -25.6000 C   0  0  0  0  0  0  0  0  0  0  0  0
  -19.0362   -5.6971  -25.9422 C   0  0  0  0  0  0  0  0  0  0  0  0
  -19.5365   -5.7649  -27.3919 C   0  0  0  0  0  0  0  0  0  0  0  0
  -22.8203   -5.1158  -26.1383 N   0  0  0  0  0  0  0  0  0  0  0  0
  -20.9718   -3.7270  -25.7199 O   0  0  0  0  0  0  0  0  0  0  0  0
  -25.0444   -2.9576  -28.3328 O   0  0  0  0  0  0  0  0  0  0  0  0
  -21.0513   -7.7870  -37.0866 O   0  0  0  0  0  0  0  0  0  0  0  0
  -19.8920   -7.7872  -31.7947 O   0  0  0  0  0  0  0  0  0  0  0  0
  -25.2845   -6.4452  -25.8198 O   0  0  0  0  0  0  0  0  0  0  0  0
  -22.7464   -2.9839  -28.5684 O   0  0  0  0  0  0  0  0  0  0  0  0
  -23.9660   -2.6555  -22.4516 H   0  0  0  0  0  0  0  0  0  0  0  0
  -26.1262   -3.8499  -22.2055 H   0  0  0  0  0  0  0  0  0  0  0  0
  -22.4227   -3.2466  -24.2881 H   0  0  0  0  0  0  0  0  0  0  0  0
  -26.7437   -5.6395  -23.7996 H   0  0  0  0  0  0  0  0  0  0  0  0
  -17.5435   -7.2930  -26.0124 H   0  0  0  0  0  0  0  0  0  0  0  0
  -21.5422   -3.5307  -35.7312 H   0  0  0  0  0  0  0  0  0  0  0  0
  -20.0481   -3.3252  -34.8476 H   0  0  0  0  0  0  0  0  0  0  0  0
  -17.8587   -7.5106  -36.2363 H   0  0  0  0  0  0  0  0  0  0  0  0
  -18.9568   -8.8770  -36.1889 H   0  0  0  0  0  0  0  0  0  0  0  0
  -21.6629   -3.0005  -33.2421 H   0  0  0  0  0  0  0  0  0  0  0  0
  -22.7896   -4.1154  -33.9218 H   0  0  0  0  0  0  0  0  0  0  0  0
  -20.2281   -7.9777  -34.3740 H   0  0  0  0  0  0  0  0  0  0  0  0
  -18.5191   -7.9098  -33.9564 H   0  0  0  0  0  0  0  0  0  0  0  0
  -18.8802   -5.0583  -30.1376 H   0  0  0  0  0  0  0  0  0  0  0  0
  -19.2073   -6.6904  -29.5583 H   0  0  0  0  0  0  0  0  0  0  0  0
  -23.5833   -5.1425  -30.8697 H   0  0  0  0  0  0  0  0  0  0  0  0
  -23.3693   -3.3899  -30.9713 H   0  0  0  0  0  0  0  0  0  0  0  0
  -21.5449   -6.5357  -30.2170 H   0  0  0  0  0  0  0  0  0  0  0  0
  -23.6546   -4.8268  -28.5938 H   0  0  0  0  0  0  0  0  0  0  0  0
  -21.3742   -5.9985  -35.3034 H   0  0  0  0  0  0  0  0  0  0  0  0
  -19.2786   -4.6332  -32.6596 H   0  0  0  0  0  0  0  0  0  0  0  0
  -19.0336   -5.0807  -36.9767 H   0  0  0  0  0  0  0  0  0  0  0  0
  -19.3563   -7.2517  -38.0886 H   0  0  0  0  0  0  0  0  0  0  0  0
  -18.2112   -6.6406  -31.8598 H   0  0  0  0  0  0  0  0  0  0  0  0
  -14.6203   -6.0910  -26.2479 H   0  0  0  0  0  0  0  0  0  0  0  0
  -14.5337   -5.6715  -24.5387 H   0  0  0  0  0  0  0  0  0  0  0  0
  -15.2288   -7.2154  -25.0175 H   0  0  0  0  0  0  0  0  0  0  0  0
  -16.7998   -3.9311  -24.0604 H   0  0  0  0  0  0  0  0  0  0  0  0
  -15.6549   -3.5714  -25.3580 H   0  0  0  0  0  0  0  0  0  0  0  0
  -17.3868   -3.6162  -25.7087 H   0  0  0  0  0  0  0  0  0  0  0  0
  -23.5957   -1.0180  -26.6746 H   0  0  0  0  0  0  0  0  0  0  0  0
  -24.6011   -0.3976  -28.0294 H   0  0  0  0  0  0  0  0  0  0  0  0
  -22.8486   -0.5967  -28.2293 H   0  0  0  0  0  0  0  0  0  0  0  0
  -21.9365   -5.4516  -37.7446 H   0  0  0  0  0  0  0  0  0  0  0  0
  -20.5825   -5.1551  -38.8519 H   0  0  0  0  0  0  0  0  0  0  0  0
  -21.0526   -3.9149  -37.6735 H   0  0  0  0  0  0  0  0  0  0  0  0
  -18.0975   -4.2522  -34.3397 H   0  0  0  0  0  0  0  0  0  0  0  0
  -17.7117   -5.4939  -35.5466 H   0  0  0  0  0  0  0  0  0  0  0  0
  -17.3356   -5.7730  -33.8353 H   0  0  0  0  0  0  0  0  0  0  0  0
  -22.0664   -7.0755  -32.0952 H   0  0  0  0  0  0  0  0  0  0  0  0
  -22.1996   -6.6758  -33.8186 H   0  0  0  0  0  0  0  0  0  0  0  0
  -23.3265   -5.9572  -32.6516 H   0  0  0  0  0  0  0  0  0  0  0  0
  -19.7055   -3.3297  -31.2977 H   0  0  0  0  0  0  0  0  0  0  0  0
  -20.7084   -2.9441  -29.8860 H   0  0  0  0  0  0  0  0  0  0  0  0
  -21.2224   -2.4333  -31.5055 H   0  0  0  0  0  0  0  0  0  0  0  0
  -26.7064   -7.8432  -26.3608 H   0  0  0  0  0  0  0  0  0  0  0  0
  -27.3401   -6.3279  -25.6464 H   0  0  0  0  0  0  0  0  0  0  0  0
  -26.5415   -7.5408  -24.6113 H   0  0  0  0  0  0  0  0  0  0  0  0
  -19.7491   -6.1919  -25.2770 H   0  0  0  0  0  0  0  0  0  0  0  0
  -19.0236   -4.6448  -25.6308 H   0  0  0  0  0  0  0  0  0  0  0  0
  -19.5330   -6.8105  -27.7275 H   0  0  0  0  0  0  0  0  0  0  0  0
  -18.8192   -5.2433  -28.0381 H   0  0  0  0  0  0  0  0  0  0  0  0
  -23.1407   -5.8602  -26.7542 H   0  0  0  0  0  0  0  0  0  0  0  0
  -20.8609   -8.7072  -37.3210 H   0  0  0  0  0  0  0  0  0  0  0  0
  -19.4568   -8.3378  -31.1253 H   0  0  0  0  0  0  0  0  0  0  0  0
  1  2  2  0  0  0  0
  1  3  1  0  0  0  0
  2  4  1  0  0  0  0
  3  5  2  0  0  0  0
  4  6  2  0  0  0  0
  5  6  1  0  0  0  0
  5 39  1  0  0  0  0
  6 44  1  0  0  0  0
  7  9  2  0  0  0  0
  7 19  1  0  0  0  0
  7 20  1  0  0  0  0
  8 10  2  0  0  0  0
  8 37  1  0  0  0  0
  9 11  1  0  0  0  0
  9 38  1  0  0  0  0
 10 29  1  0  0  0  0
 10 30  1  0  0  0  0
 11 39  1  0  0  0  0
 11 40  2  0  0  0  0
 12 31  1  0  0  0  0
 12 41  2  0  0  0  0
 12 45  1  0  0  0  0
 13 15  1  0  0  0  0
 13 21  1  0  0  0  0
 14 16  1  0  0  0  0
 14 24  1  0  0  0  0
 15 27  1  0  0  0  0
 16 26  1  0  0  0  0
 17 19  1  0  0  0  0
 17 25  1  0  0  0  0
 18 20  1  0  0  0  0
 18 28  1  0  0  0  0
 19 28  1  0  0  0  0
 20 45  1  0  0  0  0
 21 23  1  0  0  0  0
 21 26  1  0  0  0  0
 22 25  1  0  0  0  0
 22 26  1  0  0  0  0
 22 27  1  0  0  0  0
 23 24  1  0  0  0  0
 23 32  1  0  0  0  0
 24 42  1  0  0  0  0
 25 43  1  0  0  0  0
 26 33  1  0  0  0  0
 27 28  1  0  0  0  0
 27 34  1  0  0  0  0
 28 35  1  0  0  0  0
 36 44  1  0  0  0  0
 37 38  1  0  0  0  0
  1 46  1  0  0  0  0
  2 47  1  0  0  0  0
  3 48  1  0  0  0  0
  4 49  1  0  0  0  0
  8 50  1  0  0  0  0
 13 51  1  0  0  0  0
 13 52  1  0  0  0  0
 14 53  1  0  0  0  0
 14 54  1  0  0  0  0
 15 55  1  0  0  0  0
 15 56  1  0  0  0  0
 16 57  1  0  0  0  0
 16 58  1  0  0  0  0
 17 59  1  0  0  0  0
 17 60  1  0  0  0  0
 18 61  1  0  0  0  0
 18 62  1  0  0  0  0
 19 63  1  0  0  0  0
 20 64  1  0  0  0  0
 21 65  1  0  0  0  0
 22 66  1  0  0  0  0
 23 67  1  0  0  0  0
 24 68  1  0  0  0  0
 25 69  1  0  0  0  0
 29 70  1  0  0  0  0
 29 71  1  0  0  0  0
 29 72  1  0  0  0  0
 30 73  1  0  0  0  0
 30 74  1  0  0  0  0
 30 75  1  0  0  0  0
 31 76  1  0  0  0  0
 31 77  1  0  0  0  0
 31 78  1  0  0  0  0
 32 79  1  0  0  0  0
 32 80  1  0  0  0  0
 32 81  1  0  0  0  0
 33 82  1  0  0  0  0
 33 83  1  0  0  0  0
 33 84  1  0  0  0  0
 34 85  1  0  0  0  0
 34 86  1  0  0  0  0
 34 87  1  0  0  0  0
 35 88  1  0  0  0  0
 35 89  1  0  0  0  0
 35 90  1  0  0  0  0
 36 91  1  0  0  0  0
 36 92  1  0  0  0  0
 36 93  1  0  0  0  0
 37 94  1  0  0  0  0
 37 95  1  0  0  0  0
 38 96  1  0  0  0  0
 38 97  1  0  0  0  0
 39 98  1  0  0  0  0
 42 99  1  0  0  0  0
 43100  1  0  0  0  0
M  END
> <SMILES>
COc1ccccc1NC(=O)/C(=C/1\[C@H](C[C@@]2(C)[C@H]1C[C@@H](O)[C@H]1[C@@]3(C)CC[C@@H](O)[C@@H](C)[C@@H]3CC[C@@]12C)OC(=O)C)CCC=C(C)C

> <FORMATTED_ID>
H3D-005456

> <MOLFORMULA>
C38H55NO6

> <Exact Mass>
621.4

> <XLogP>
6.89

> <TPSA_NOPS>
105.1

> <s_m_source_file>
ligprep_h3d.sdf

> <i_m_source_file_index>
2367

> <i_lp_mmshare_version>
55123

> <i_f3d_flags>
0

> <s_epik_input>
W0NIM11PYzFbY0hdW2NIXVtjSF1bY0hdYzFbTkhdQyg9TykvQyhbQ0gyXVtDSDJdW0NIXT1DKFtDSDNdKVtDSDNdKT1DKFxbQ0BIXShbQ0gyXTIpT0MoPU8pW0NIM10pW0NAQEhdKFtDQF0yM1tDSDNdKVtDSDJdW0NAQEhdKFtPSF0pW0NASF00W0NAXTUoW0NIM10pW0NASF0oW0NASF0oW0NIM10pW0NASF0oW09IXSlbQ0gyXVtDSDJdNSlbQ0gyXVtDSDJdW0NAXTM0W0NIM10=

> <s_epik_cmdline>
J2VwaWtfcHl0aG9uJywgJy1waHQnLCAnMC41JywgJy1waCcsICc3LjUnLCAnLXRuJywgJzgnLCAnLW1hJywgJzUwMCcsICctaW1hZScsICc8aW5maWxlLm1hZT4nLCAnLW9tYWUnLCAnPG91dGZpbGUubWFlPic=

> <r_lp_tautomer_probability>
1

> <r_epik_Ionization_Penalty>
0.000462728

> <r_epik_Ionization_Penalty_Charging>
0

> <r_epik_Ionization_Penalty_Neutral>
0.000462728

> <r_epik_State_Penalty>
-0

> <r_epik_Charging_Adjusted_Penalty>
0

> <i_epik_Tot_Q>
0

> <i_epik_Tot_abs_Q>
0

> <s_epik_Chemistry_Notes>
This compound has an ester and may undergo hydrolysis at high or low pH.

> <s_lp_Force_Field>
S-OPLS

> <r_lp_Energy>
96.4263

> <b_lp_Chiralities_Consistent>
1

> <s_lp_Variant>
ligprep_h3d.sdf:2367-1

> <ROCS_ShapeQuery>
_7L13

> <ROCS_TanimotoCombo>
0.687 

> <ROCS_ShapeTanimoto>
0.593 

> <ROCS_ColorTanimoto>
0.094 

> <ROCS_RefTversky>
0.809 

> <ROCS_RefColorTversky>
0.221 

> <ROCS_RefTverskyCombo>
1.030 

> <ROCS_FitTversky>
0.690 

> <ROCS_FitColorTversky>
0.140 

> <ROCS_FitTverskyCombo>
0.830 

> <ROCS_ColorScore>
-2.059

> <ROCS_Overlap>
1356.010

> <ROCS_Rank>
128                 

$$$$
ligprep_h3d.sdf:5337_1555
  -OEChem-08212117123D

 74 80  0     0  0  0  0  0  0999 V2000
  -18.6101   -6.6515  -35.5138 C   0  0  0  0  0  0  0  0  0  0  0  0
  -19.1680   -5.3920  -35.7325 C   0  0  0  0  0  0  0  0  0  0  0  0
  -18.9291   -7.3645  -34.3580 C   0  0  0  0  0  0  0  0  0  0  0  0
  -20.0448   -4.8453  -34.7956 C   0  0  0  0  0  0  0  0  0  0  0  0
  -19.8059   -6.8178  -33.4211 C   0  0  0  0  0  0  0  0  0  0  0  0
  -26.9024   -5.0876  -23.1857 C   0  0  0  0  0  0  0  0  0  0  0  0
  -22.8284   -3.5768  -28.8683 C   0  0  0  0  0  0  0  0  0  0  0  0
  -20.2720   -4.6532  -29.3561 C   0  0  0  0  0  0  0  0  0  0  0  0
  -14.7112   -6.5046  -25.5107 C   0  0  0  0  0  0  0  0  0  0  0  0
  -27.9230   -5.5257  -22.3777 C   0  0  0  0  0  0  0  0  0  0  0  0
  -15.2925   -7.4534  -26.3184 C   0  0  0  0  0  0  0  0  0  0  0  0
  -22.0452   -4.0593  -27.8266 C   0  0  0  0  0  0  0  0  0  0  0  0
  -20.3638   -5.5582  -33.6398 C   0  0  0  0  0  0  0  0  0  0  0  0
  -20.7723   -4.5943  -28.0603 C   0  0  0  0  0  0  0  0  0  0  0  0
  -22.3213   -3.6285  -30.1660 C   0  0  0  0  0  0  0  0  0  0  0  0
  -21.0512   -4.1647  -30.4085 C   0  0  0  0  0  0  0  0  0  0  0  0
  -25.9198   -4.6233  -22.2909 C   0  0  0  0  0  0  0  0  0  0  0  0
  -16.6858   -5.7810  -25.8922 C   0  0  0  0  0  0  0  0  0  0  0  0
  -17.9356   -5.1039  -26.0030 C   0  0  0  0  0  0  0  0  0  0  0  0
  -18.7515   -6.9113  -27.4196 C   0  0  0  0  0  0  0  0  0  0  0  0
  -17.5775   -7.5551  -27.3210 C   0  0  0  0  0  0  0  0  0  0  0  0
  -18.9471   -5.6289  -26.7341 C   0  0  0  0  0  0  0  0  0  0  0  0
  -23.9281   -5.3408  -24.6799 C   0  0  0  0  0  0  0  0  0  0  0  0
  -23.2955   -2.9198  -24.3182 C   0  0  0  0  0  0  0  0  0  0  0  0
  -23.4608   -5.2473  -26.1354 C   0  0  0  0  0  0  0  0  0  0  0  0
  -22.8660   -2.8075  -25.7820 C   0  0  0  0  0  0  0  0  0  0  0  0
  -21.0065   -4.5750  -25.7648 C   0  0  0  0  0  0  0  0  0  0  0  0
  -24.3819   -3.9815  -24.1464 C   0  0  0  0  0  0  0  0  0  0  0  0
  -22.3907   -4.1554  -26.3589 C   0  0  0  0  0  0  0  0  0  0  0  0
  -28.2426   -5.6056  -19.8935 C   0  0  0  0  0  0  0  0  0  0  0  0
  -22.9230   -1.7815  -31.5380 C   0  0  0  0  0  0  0  0  0  0  0  0
  -21.3068   -4.9705  -32.6313 C   0  0  0  0  0  0  0  0  0  0  0  0
  -15.5771   -5.4730  -25.2505 N   0  0  0  0  0  0  0  0  0  0  0  0
  -26.2835   -4.7540  -21.0124 N   0  0  0  0  0  0  0  0  0  0  0  0
  -16.5595   -6.9905  -26.5637 N   0  0  0  0  0  0  0  0  0  0  0  0
  -27.5061   -5.3055  -21.0979 N   0  0  0  0  0  0  0  0  0  0  0  0
  -20.1530   -5.0253  -26.8711 N   0  0  0  0  0  0  0  0  0  0  0  0
  -24.7238   -4.0975  -22.7451 N   0  0  0  0  0  0  0  0  0  0  0  0
  -23.0782   -3.1572  -31.1970 O   0  0  0  0  0  0  0  0  0  0  0  0
  -20.5596   -4.2169  -31.6795 O   0  0  0  0  0  0  0  0  0  0  0  0
  -17.9284   -7.0776  -36.2441 H   0  0  0  0  0  0  0  0  0  0  0  0
  -18.9205   -4.8372  -36.6329 H   0  0  0  0  0  0  0  0  0  0  0  0
  -18.4958   -8.3456  -34.1879 H   0  0  0  0  0  0  0  0  0  0  0  0
  -20.4745   -3.8631  -34.9743 H   0  0  0  0  0  0  0  0  0  0  0  0
  -20.0486   -7.3804  -32.5235 H   0  0  0  0  0  0  0  0  0  0  0  0
  -26.8821   -5.1060  -24.2661 H   0  0  0  0  0  0  0  0  0  0  0  0
  -23.8197   -3.1765  -28.6809 H   0  0  0  0  0  0  0  0  0  0  0  0
  -19.2890   -5.0645  -29.5636 H   0  0  0  0  0  0  0  0  0  0  0  0
  -13.7108   -6.5130  -25.1031 H   0  0  0  0  0  0  0  0  0  0  0  0
  -28.8858   -5.9642  -22.6012 H   0  0  0  0  0  0  0  0  0  0  0  0
  -14.9272   -8.3857  -26.7267 H   0  0  0  0  0  0  0  0  0  0  0  0
  -18.0547   -4.1569  -25.4854 H   0  0  0  0  0  0  0  0  0  0  0  0
  -19.5635   -7.3295  -28.0047 H   0  0  0  0  0  0  0  0  0  0  0  0
  -17.3846   -8.5030  -27.8085 H   0  0  0  0  0  0  0  0  0  0  0  0
  -24.7531   -6.0613  -24.6185 H   0  0  0  0  0  0  0  0  0  0  0  0
  -23.1172   -5.7390  -24.0580 H   0  0  0  0  0  0  0  0  0  0  0  0
  -22.4238   -3.1615  -23.6971 H   0  0  0  0  0  0  0  0  0  0  0  0
  -23.6672   -1.9443  -23.9813 H   0  0  0  0  0  0  0  0  0  0  0  0
  -23.0868   -6.2281  -26.4568 H   0  0  0  0  0  0  0  0  0  0  0  0
  -24.3381   -5.0381  -26.7627 H   0  0  0  0  0  0  0  0  0  0  0  0
  -23.7190   -2.4296  -26.3611 H   0  0  0  0  0  0  0  0  0  0  0  0
  -22.0797   -2.0473  -25.8743 H   0  0  0  0  0  0  0  0  0  0  0  0
  -20.5150   -3.7211  -25.2796 H   0  0  0  0  0  0  0  0  0  0  0  0
  -21.1007   -5.3626  -25.0091 H   0  0  0  0  0  0  0  0  0  0  0  0
  -25.2795   -3.6652  -24.6908 H   0  0  0  0  0  0  0  0  0  0  0  0
  -27.9885   -6.6239  -19.5877 H   0  0  0  0  0  0  0  0  0  0  0  0
  -27.9683   -4.8919  -19.1116 H   0  0  0  0  0  0  0  0  0  0  0  0
  -29.3142   -5.5218  -20.0949 H   0  0  0  0  0  0  0  0  0  0  0  0
  -23.5822   -1.5359  -32.3742 H   0  0  0  0  0  0  0  0  0  0  0  0
  -21.8826   -1.5881  -31.8114 H   0  0  0  0  0  0  0  0  0  0  0  0
  -23.1905   -1.1687  -30.6739 H   0  0  0  0  0  0  0  0  0  0  0  0
  -22.0367   -4.3122  -33.1146 H   0  0  0  0  0  0  0  0  0  0  0  0
  -21.8590   -5.7603  -32.1106 H   0  0  0  0  0  0  0  0  0  0  0  0
  -24.0470   -3.7760  -22.0651 H   0  0  0  0  0  0  0  0  0  0  0  0
  1  2  2  0  0  0  0
  1  3  1  0  0  0  0
  2  4  1  0  0  0  0
  3  5  2  0  0  0  0
  4 13  2  0  0  0  0
  5 13  1  0  0  0  0
  6 10  2  0  0  0  0
  6 17  1  0  0  0  0
  7 12  1  0  0  0  0
  7 15  2  0  0  0  0
  8 14  1  0  0  0  0
  8 16  2  0  0  0  0
  9 11  2  0  0  0  0
  9 33  1  0  0  0  0
 10 36  1  0  0  0  0
 11 35  1  0  0  0  0
 12 14  2  0  0  0  0
 12 29  1  0  0  0  0
 13 32  1  0  0  0  0
 14 37  1  0  0  0  0
 15 16  1  0  0  0  0
 15 39  1  0  0  0  0
 16 40  1  0  0  0  0
 17 34  2  0  0  0  0
 17 38  1  0  0  0  0
 18 19  1  0  0  0  0
 18 33  2  0  0  0  0
 18 35  1  0  0  0  0
 19 22  2  0  0  0  0
 20 21  2  0  0  0  0
 20 22  1  0  0  0  0
 21 35  1  0  0  0  0
 22 37  1  0  0  0  0
 23 25  1  0  0  0  0
 23 28  1  0  0  0  0
 24 26  1  0  0  0  0
 24 28  1  0  0  0  0
 25 29  1  0  0  0  0
 26 29  1  0  0  0  0
 27 29  1  0  0  0  0
 27 37  1  0  0  0  0
 28 38  1  0  0  0  0
 30 36  1  0  0  0  0
 31 39  1  0  0  0  0
 32 40  1  0  0  0  0
 34 36  1  0  0  0  0
  1 41  1  0  0  0  0
  2 42  1  0  0  0  0
  3 43  1  0  0  0  0
  4 44  1  0  0  0  0
  5 45  1  0  0  0  0
  6 46  1  0  0  0  0
  7 47  1  0  0  0  0
  8 48  1  0  0  0  0
  9 49  1  0  0  0  0
 10 50  1  0  0  0  0
 11 51  1  0  0  0  0
 19 52  1  0  0  0  0
 20 53  1  0  0  0  0
 21 54  1  0  0  0  0
 23 55  1  0  0  0  0
 23 56  1  0  0  0  0
 24 57  1  0  0  0  0
 24 58  1  0  0  0  0
 25 59  1  0  0  0  0
 25 60  1  0  0  0  0
 26 61  1  0  0  0  0
 26 62  1  0  0  0  0
 27 63  1  0  0  0  0
 27 64  1  0  0  0  0
 28 65  1  0  0  0  0
 30 66  1  0  0  0  0
 30 67  1  0  0  0  0
 30 68  1  0  0  0  0
 31 69  1  0  0  0  0
 31 70  1  0  0  0  0
 31 71  1  0  0  0  0
 32 72  1  0  0  0  0
 32 73  1  0  0  0  0
 38 74  1  0  0  0  0
M  END
> <SMILES>
COc1cc2c(cc1OCc1ccccc1)N(CC12CCC(CC1)Nc1ccn(n1)C)c1ccn2ccnc2c1

> <FORMATTED_ID>
H3D-014950

> <MOLFORMULA>
C32H34N6O2

> <Exact Mass>
534.27

> <XLogP>
7.42

> <TPSA_NOPS>
68.8

> <s_m_source_file>
ligprep_h3d.sdf

> <i_m_source_file_index>
5337

> <i_lp_mmshare_version>
55123

> <i_f3d_flags>
0

> <s_epik_input>
W2NIXTFbY0hdW2NIXVtjSF1bY0hdYzFbQ0gyXU9jKGMoW2NIXTIpT1tDSDNdKVtjSF1jKE4oW0NIMl0zKWMoW2NIXVtjSF00KVtjSF1jKG40NSluW2NIXVtjSF01KWMyW0NAXTM2W0NIMl1bQ0gyXVtDQEhdKFtDSDJdW0NIMl02KVtOSF1jN1tjSF1bY0hdbihuNylbQ0gzXQ==

> <s_epik_cmdline>
J2VwaWtfcHl0aG9uJywgJy1waHQnLCAnMC41JywgJy1waCcsICc3LjUnLCAnLXRuJywgJzgnLCAnLW1hJywgJzUwMCcsICctaW1hZScsICc8aW5maWxlLm1hZT4nLCAnLW9tYWUnLCAnPG91dGZpbGUubWFlPic=

> <r_lp_tautomer_probability>
1

> <r_epik_Ionization_Penalty>
0.519451

> <r_epik_Ionization_Penalty_Charging>
0.517677

> <r_epik_Ionization_Penalty_Neutral>
0.00177381

> <r_epik_State_Penalty>
0.525436

> <r_epik_Charging_Adjusted_Penalty>
1.04311

> <i_epik_Tot_Q>
0

> <i_epik_Tot_abs_Q>
0

> <s_lp_Force_Field>
S-OPLS

> <r_lp_Energy>
65.0681

> <b_lp_Chiralities_Consistent>
1

> <s_lp_Variant>
ligprep_h3d.sdf:5337-2

> <ROCS_ShapeQuery>
_7L13

> <ROCS_TanimotoCombo>
0.730 

> <ROCS_ShapeTanimoto>
0.618 

> <ROCS_ColorTanimoto>
0.112 

> <ROCS_RefTversky>
0.809 

> <ROCS_RefColorTversky>
0.232 

> <ROCS_RefTverskyCombo>
1.040 

> <ROCS_FitTversky>
0.723 

> <ROCS_FitColorTversky>
0.178 

> <ROCS_FitTverskyCombo>
0.902 

> <ROCS_ColorScore>
-2.121

> <ROCS_Overlap>
1351.809

> <ROCS_Rank>
129                 

$$$$
ligprep_h3d.sdf:413_331
  -OEChem-08212117123D

 64 69  0     1  0  0  0  0  0999 V2000
  -20.9899   -5.1552  -29.5019 C   0  0  0  0  0  0  0  0  0  0  0  0
  -21.7541   -4.3873  -30.3828 C   0  0  0  0  0  0  0  0  0  0  0  0
  -21.0999   -4.9096  -28.1115 C   0  0  0  0  0  0  0  0  0  0  0  0
  -21.9851   -3.9436  -27.5778 C   0  0  0  0  0  0  0  0  0  0  0  0
  -22.5882   -3.4245  -29.8589 C   0  0  0  0  0  0  0  0  0  0  0  0
  -22.7326   -3.1676  -28.4953 C   0  0  0  0  0  0  0  0  0  0  0  0
  -21.9487   -4.2798  -31.7724 C   0  0  0  0  0  0  0  0  0  0  0  0
  -18.9191   -3.8752  -26.1978 C   0  0  0  0  0  0  0  0  0  0  0  0
  -19.2950   -6.1337  -25.0128 C   0  0  0  0  0  0  0  0  0  0  0  0
  -17.0242   -5.4078  -25.7160 C   0  0  0  0  0  0  0  0  0  0  0  0
  -19.0410   -6.8612  -36.5080 C   0  0  0  0  0  0  0  0  0  0  0  0
  -20.2460   -5.7420  -27.1926 C   0  0  0  0  0  0  0  0  0  0  0  0
  -19.9166   -6.8013  -33.5399 C   0  0  0  0  0  0  0  0  0  0  0  0
  -20.8404   -6.4486  -32.3740 C   0  0  0  0  0  0  0  0  0  0  0  0
  -20.9033   -4.6748  -34.0204 C   0  0  0  0  0  0  0  0  0  0  0  0
  -23.0322   -2.7785  -25.6467 C   0  0  0  0  0  0  0  0  0  0  0  0
  -21.2230   -4.4860  -25.2307 C   0  0  2  0  0  0  0  0  0  0  0  0
  -20.4947   -5.9883  -34.6894 C   0  0  1  0  0  0  0  0  0  0  0  0
  -23.4085   -3.0819  -24.1937 C   0  0  1  0  0  0  0  0  0  0  0  0
  -21.0428   -3.5518  -23.9988 C   0  0  2  0  0  0  0  0  0  0  0  0
  -19.9022   -5.0113  -25.8706 C   0  0  0  0  0  0  0  0  0  0  0  0
  -18.1020   -6.4440  -37.5908 C   0  0  0  0  0  0  0  0  0  0  0  0
  -24.4150   -4.2245  -24.0730 C   0  0  0  0  0  0  0  0  0  0  0  0
  -20.0970   -4.0485  -22.9118 C   0  0  0  0  0  0  0  0  0  0  0  0
  -22.8307   -3.3266  -32.0883 N   0  0  0  0  0  0  0  0  0  0  0  0
  -17.5821   -4.2400  -26.2162 N   0  0  0  0  0  0  0  0  0  0  0  0
  -17.9201   -6.2790  -25.1130 N   0  0  0  0  0  0  0  0  0  0  0  0
  -22.0930   -3.7646  -26.1966 N   0  0  3  0  0  0  0  0  0  0  0  0
  -21.2794   -5.0857  -32.6686 N   0  0  0  0  0  0  0  0  0  0  0  0
  -19.5724   -5.8105  -35.7723 N   0  0  0  0  0  0  0  0  0  0  0  0
  -19.2783   -2.7342  -26.4882 O   0  0  0  0  0  0  0  0  0  0  0  0
  -19.9806   -6.9127  -24.3491 O   0  0  0  0  0  0  0  0  0  0  0  0
  -15.8144   -5.6360  -25.7671 O   0  0  0  0  0  0  0  0  0  0  0  0
  -19.2787   -8.0515  -36.3398 O   0  0  0  0  0  0  0  0  0  0  0  0
  -23.2326   -2.7847  -30.8730 O   0  0  0  0  0  0  0  0  0  0  0  0
  -22.3017   -3.3604  -23.3415 O   0  0  0  0  0  0  0  0  0  0  0  0
  -23.4957   -2.1297  -28.1328 F   0  0  0  0  0  0  0  0  0  0  0  0
  -20.3163   -5.9209  -29.8764 H   0  0  0  0  0  0  0  0  0  0  0  0
  -20.7913   -6.6745  -26.9921 H   0  0  0  0  0  0  0  0  0  0  0  0
  -19.3196   -6.0252  -27.7109 H   0  0  0  0  0  0  0  0  0  0  0  0
  -18.8922   -6.4830  -33.3089 H   0  0  0  0  0  0  0  0  0  0  0  0
  -19.9084   -7.8754  -33.7479 H   0  0  0  0  0  0  0  0  0  0  0  0
  -21.7096   -7.1168  -32.3500 H   0  0  0  0  0  0  0  0  0  0  0  0
  -20.3133   -6.5184  -31.4157 H   0  0  0  0  0  0  0  0  0  0  0  0
  -20.0655   -3.9680  -33.9645 H   0  0  0  0  0  0  0  0  0  0  0  0
  -21.7360   -4.1980  -34.5503 H   0  0  0  0  0  0  0  0  0  0  0  0
  -23.9442   -2.8053  -26.2784 H   0  0  0  0  0  0  0  0  0  0  0  0
  -22.7012   -1.7295  -25.6897 H   0  0  0  0  0  0  0  0  0  0  0  0
  -21.8173   -5.3526  -24.9017 H   0  0  0  0  0  0  0  0  0  0  0  0
  -21.3818   -6.4910  -35.0941 H   0  0  0  0  0  0  0  0  0  0  0  0
  -23.9385   -2.1633  -23.7616 H   0  0  0  0  0  0  0  0  0  0  0  0
  -20.6790   -2.5561  -24.3122 H   0  0  0  0  0  0  0  0  0  0  0  0
  -17.0577   -6.3887  -37.2436 H   0  0  0  0  0  0  0  0  0  0  0  0
  -18.0913   -7.1529  -38.4342 H   0  0  0  0  0  0  0  0  0  0  0  0
  -18.3099   -5.4605  -38.0418 H   0  0  0  0  0  0  0  0  0  0  0  0
  -23.9836   -5.1450  -24.4666 H   0  0  0  0  0  0  0  0  0  0  0  0
  -25.3175   -3.9879  -24.6368 H   0  0  0  0  0  0  0  0  0  0  0  0
  -24.6816   -4.3780  -23.0271 H   0  0  0  0  0  0  0  0  0  0  0  0
  -20.4118   -5.0327  -22.5650 H   0  0  0  0  0  0  0  0  0  0  0  0
  -20.1029   -3.3578  -22.0686 H   0  0  0  0  0  0  0  0  0  0  0  0
  -19.0826   -4.1193  -23.3043 H   0  0  0  0  0  0  0  0  0  0  0  0
  -16.9397   -3.5795  -26.6430 H   0  0  0  0  0  0  0  0  0  0  0  0
  -17.5170   -7.0874  -24.6480 H   0  0  0  0  0  0  0  0  0  0  0  0
  -19.2911   -4.8597  -36.0158 H   0  0  0  0  0  0  0  0  0  0  0  0
  1  2  2  0  0  0  0
  1  3  1  0  0  0  0
  2  5  1  0  0  0  0
  2  7  1  0  0  0  0
  3  4  2  0  0  0  0
  3 12  1  0  0  0  0
  4  6  1  0  0  0  0
  4 28  1  0  0  0  0
  5  6  2  0  0  0  0
  5 35  1  0  0  0  0
  6 37  1  0  0  0  0
  7 25  2  0  0  0  0
  7 29  1  0  0  0  0
  8 21  1  0  0  0  0
  8 26  1  0  0  0  0
  8 31  2  0  0  0  0
  9 21  1  0  0  0  0
  9 27  1  0  0  0  0
  9 32  2  0  0  0  0
 10 26  1  0  0  0  0
 10 27  1  0  0  0  0
 10 33  2  0  0  0  0
 11 22  1  0  0  0  0
 11 30  1  0  0  0  0
 11 34  2  0  0  0  0
 12 21  1  0  0  0  0
 13 14  1  0  0  0  0
 13 18  1  0  0  0  0
 14 29  1  0  0  0  0
 15 18  1  0  0  0  0
 15 29  1  0  0  0  0
 16 19  1  0  0  0  0
 16 28  1  0  0  0  0
 17 20  1  0  0  0  0
 17 21  1  0  0  0  0
 17 28  1  0  0  0  0
 18 30  1  0  0  0  0
 19 23  1  0  0  0  0
 19 36  1  0  0  0  0
 20 24  1  0  0  0  0
 20 36  1  0  0  0  0
 25 35  1  0  0  0  0
  1 38  1  0  0  0  0
 12 39  1  0  0  0  0
 12 40  1  0  0  0  0
 13 41  1  0  0  0  0
 13 42  1  0  0  0  0
 14 43  1  0  0  0  0
 14 44  1  0  0  0  0
 15 45  1  0  0  0  0
 15 46  1  0  0  0  0
 16 47  1  0  0  0  0
 16 48  1  0  0  0  0
 17 49  1  0  0  0  0
 18 50  1  0  0  0  0
 19 51  1  0  0  0  0
 20 52  1  0  0  0  0
 22 53  1  0  0  0  0
 22 54  1  0  0  0  0
 22 55  1  0  0  0  0
 23 56  1  0  0  0  0
 23 57  1  0  0  0  0
 23 58  1  0  0  0  0
 24 59  1  0  0  0  0
 24 60  1  0  0  0  0
 24 61  1  0  0  0  0
 26 62  1  0  0  0  0
 27 63  1  0  0  0  0
 30 64  1  0  0  0  0
M  END
> <SMILES>
CC1CN2C(C(C)O1)C1(Cc3cc4c(noc4c(c32)F)N2CC[C@@H](C2)NC(=O)C)C(=O)NC(=O)NC1=O

> <FORMATTED_ID>
H3D-003834

> <MOLFORMULA>
C24H27FN6O6

> <Exact Mass>
514.2

> <XLogP>
0.23

> <TPSA_NOPS>
146.4

> <s_m_source_file>
ligprep_h3d.sdf

> <i_m_source_file_index>
413

> <i_lp_mmshare_version>
55123

> <i_f3d_flags>
0

> <s_epik_input>
Tz1DMVtOSF1DKD1PKVtOSF1DKD1PKUMxMltDQEBIXTNOKFtDSDJdW0NAQEhdKFtDSDNdKU9bQ0BIXTNbQ0gzXSljNGMoW0NIMl0yKVtjSF1jNWMoYzRGKW9uYzVONltDSDJdW0NIMl1bQ0BASF0oW0NIMl02KVtOSF1DKD1PKVtDSDNd

> <s_epik_cmdline>
J2VwaWtfcHl0aG9uJywgJy1waHQnLCAnMC41JywgJy1waCcsICc3LjUnLCAnLXRuJywgJzgnLCAnLW1hJywgJzUwMCcsICctaW1hZScsICc8aW5maWxlLm1hZT4nLCAnLW9tYWUnLCAnPG91dGZpbGUubWFlPic=

> <r_lp_tautomer_probability>
1

> <r_epik_Ionization_Penalty>
0.369126

> <r_epik_Ionization_Penalty_Charging>
0

> <r_epik_Ionization_Penalty_Neutral>
0.369126

> <r_epik_State_Penalty>
0.366447

> <r_epik_Charging_Adjusted_Penalty>
0.366447

> <i_epik_Tot_Q>
0

> <i_epik_Tot_abs_Q>
0

> <s_lp_Force_Field>
S-OPLS

> <r_lp_Energy>
42.7609

> <b_lp_Chiralities_Consistent>
1

> <s_lp_Variant>
ligprep_h3d.sdf:413-1

> <ROCS_ShapeQuery>
_7L13

> <ROCS_TanimotoCombo>
0.785 

> <ROCS_ShapeTanimoto>
0.655 

> <ROCS_ColorTanimoto>
0.130 

> <ROCS_RefTversky>
0.809 

> <ROCS_RefColorTversky>
0.298 

> <ROCS_RefTverskyCombo>
1.107 

> <ROCS_FitTversky>
0.775 

> <ROCS_FitColorTversky>
0.188 

> <ROCS_FitTverskyCombo>
0.963 

> <ROCS_ColorScore>
-2.773

> <ROCS_Overlap>
1346.202

> <ROCS_Rank>
130                 

$$$$
ligprep_h3d.sdf:5441_222
  -OEChem-08212117123D

 61 65  0     0  0  0  0  0  0999 V2000
  -21.2857   -7.0384  -33.8591 C   0  0  0  0  0  0  0  0  0  0  0  0
  -20.4641   -4.7665  -33.8782 C   0  0  0  0  0  0  0  0  0  0  0  0
  -20.4471   -7.3507  -34.9290 C   0  0  0  0  0  0  0  0  0  0  0  0
  -19.6253   -5.0788  -34.9481 C   0  0  0  0  0  0  0  0  0  0  0  0
  -24.6755   -5.1722  -25.3466 C   0  0  0  0  0  0  0  0  0  0  0  0
  -23.3925   -3.9095  -23.7517 C   0  0  0  0  0  0  0  0  0  0  0  0
  -20.7961   -4.5079  -29.1637 C   0  0  0  0  0  0  0  0  0  0  0  0
  -23.4413   -4.2685  -28.2293 C   0  0  0  0  0  0  0  0  0  0  0  0
  -25.6943   -5.2193  -24.4088 C   0  0  0  0  0  0  0  0  0  0  0  0
  -24.4688   -4.0130  -22.8853 C   0  0  0  0  0  0  0  0  0  0  0  0
  -21.0786   -4.5075  -27.8030 C   0  0  0  0  0  0  0  0  0  0  0  0
  -21.2943   -5.7462  -33.3337 C   0  0  0  0  0  0  0  0  0  0  0  0
  -23.5060   -4.5029  -25.0040 C   0  0  0  0  0  0  0  0  0  0  0  0
  -22.3940   -4.4065  -27.3268 C   0  0  0  0  0  0  0  0  0  0  0  0
  -21.8515   -4.3833  -30.0648 C   0  0  0  0  0  0  0  0  0  0  0  0
  -23.1655   -4.2600  -29.6002 C   0  0  0  0  0  0  0  0  0  0  0  0
  -19.6169   -6.3710  -35.4735 C   0  0  0  0  0  0  0  0  0  0  0  0
  -19.6444   -6.1097  -26.5217 C   0  0  0  0  0  0  0  0  0  0  0  0
  -18.9069   -3.7040  -26.7551 C   0  0  0  0  0  0  0  0  0  0  0  0
  -21.0551   -4.2364  -25.4653 C   0  0  0  0  0  0  0  0  0  0  0  0
  -18.6065   -6.3140  -25.4226 C   0  0  0  0  0  0  0  0  0  0  0  0
  -17.9096   -3.9119  -25.6228 C   0  0  0  0  0  0  0  0  0  0  0  0
  -20.1184   -4.6463  -26.6468 C   0  0  0  0  0  0  0  0  0  0  0  0
  -16.3652   -5.5873  -24.6127 C   0  0  0  0  0  0  0  0  0  0  0  0
  -24.5557   -2.8078  -30.8708 C   0  0  0  0  0  0  0  0  0  0  0  0
  -22.1957   -5.4097  -32.1823 C   0  0  0  0  0  0  0  0  0  0  0  0
  -25.6209   -4.6549  -23.1825 N   0  0  0  0  0  0  0  0  0  0  0  0
  -22.4479   -4.4272  -25.9147 N   0  0  0  0  0  0  0  0  0  0  0  0
  -17.4607   -5.3528  -25.6166 N   0  3  0  0  0  0  0  0  0  0  0  0
  -24.1967   -4.1319  -30.4837 O   0  0  0  0  0  0  0  0  0  0  0  0
  -21.5903   -4.3808  -31.4025 O   0  0  0  0  0  0  0  0  0  0  0  0
  -18.8094   -6.6715  -36.4991 F   0  0  0  0  0  0  0  0  0  0  0  0
  -21.9296   -7.8083  -33.4420 H   0  0  0  0  0  0  0  0  0  0  0  0
  -20.4637   -3.7571  -33.4752 H   0  0  0  0  0  0  0  0  0  0  0  0
  -20.4398   -8.3567  -35.3376 H   0  0  0  0  0  0  0  0  0  0  0  0
  -18.9792   -4.3162  -35.3725 H   0  0  0  0  0  0  0  0  0  0  0  0
  -24.7961   -5.6455  -26.3153 H   0  0  0  0  0  0  0  0  0  0  0  0
  -22.4943   -3.3798  -23.4525 H   0  0  0  0  0  0  0  0  0  0  0  0
  -19.7765   -4.6082  -29.5216 H   0  0  0  0  0  0  0  0  0  0  0  0
  -24.4657   -4.1737  -27.8804 H   0  0  0  0  0  0  0  0  0  0  0  0
  -26.6270   -5.7290  -24.6273 H   0  0  0  0  0  0  0  0  0  0  0  0
  -24.4310   -3.5671  -21.8968 H   0  0  0  0  0  0  0  0  0  0  0  0
  -19.2086   -6.4397  -27.4750 H   0  0  0  0  0  0  0  0  0  0  0  0
  -20.4955   -6.7775  -26.3351 H   0  0  0  0  0  0  0  0  0  0  0  0
  -19.2321   -2.6558  -26.7645 H   0  0  0  0  0  0  0  0  0  0  0  0
  -18.3861   -3.8621  -27.7088 H   0  0  0  0  0  0  0  0  0  0  0  0
  -20.8613   -4.8156  -24.5560 H   0  0  0  0  0  0  0  0  0  0  0  0
  -20.9148   -3.1759  -25.2121 H   0  0  0  0  0  0  0  0  0  0  0  0
  -19.0180   -6.1436  -24.4226 H   0  0  0  0  0  0  0  0  0  0  0  0
  -18.1949   -7.3278  -25.4722 H   0  0  0  0  0  0  0  0  0  0  0  0
  -17.0202   -3.2924  -25.7788 H   0  0  0  0  0  0  0  0  0  0  0  0
  -18.3402   -3.6897  -24.6405 H   0  0  0  0  0  0  0  0  0  0  0  0
  -16.7730   -5.3860  -23.6204 H   0  0  0  0  0  0  0  0  0  0  0  0
  -16.0467   -6.6276  -24.7026 H   0  0  0  0  0  0  0  0  0  0  0  0
  -15.5462   -4.9044  -24.8463 H   0  0  0  0  0  0  0  0  0  0  0  0
  -25.3893   -2.8470  -31.5762 H   0  0  0  0  0  0  0  0  0  0  0  0
  -23.6958   -2.3167  -31.3333 H   0  0  0  0  0  0  0  0  0  0  0  0
  -24.8586   -2.2477  -29.9830 H   0  0  0  0  0  0  0  0  0  0  0  0
  -23.1715   -5.0613  -32.5375 H   0  0  0  0  0  0  0  0  0  0  0  0
  -22.3619   -6.2888  -31.5503 H   0  0  0  0  0  0  0  0  0  0  0  0
  -17.0526   -5.5486  -26.5410 H   0  0  0  0  0  0  0  0  0  0  0  0
  1  3  1  0  0  0  0
  1 12  2  0  0  0  0
  2  4  2  0  0  0  0
  2 12  1  0  0  0  0
  3 17  2  0  0  0  0
  4 17  1  0  0  0  0
  5  9  1  0  0  0  0
  5 13  2  0  0  0  0
  6 10  2  0  0  0  0
  6 13  1  0  0  0  0
  7 11  1  0  0  0  0
  7 15  2  0  0  0  0
  8 14  1  0  0  0  0
  8 16  2  0  0  0  0
  9 27  2  0  0  0  0
 10 27  1  0  0  0  0
 11 14  2  0  0  0  0
 11 23  1  0  0  0  0
 12 26  1  0  0  0  0
 13 28  1  0  0  0  0
 14 28  1  0  0  0  0
 15 16  1  0  0  0  0
 15 31  1  0  0  0  0
 16 30  1  0  0  0  0
 17 32  1  0  0  0  0
 18 21  1  0  0  0  0
 18 23  1  0  0  0  0
 19 22  1  0  0  0  0
 19 23  1  0  0  0  0
 20 23  1  0  0  0  0
 20 28  1  0  0  0  0
 21 29  1  0  0  0  0
 22 29  1  0  0  0  0
 24 29  1  0  0  0  0
 25 30  1  0  0  0  0
 26 31  1  0  0  0  0
  1 33  1  0  0  0  0
  2 34  1  0  0  0  0
  3 35  1  0  0  0  0
  4 36  1  0  0  0  0
  5 37  1  0  0  0  0
  6 38  1  0  0  0  0
  7 39  1  0  0  0  0
  8 40  1  0  0  0  0
  9 41  1  0  0  0  0
 10 42  1  0  0  0  0
 18 43  1  0  0  0  0
 18 44  1  0  0  0  0
 19 45  1  0  0  0  0
 19 46  1  0  0  0  0
 20 47  1  0  0  0  0
 20 48  1  0  0  0  0
 21 49  1  0  0  0  0
 21 50  1  0  0  0  0
 22 51  1  0  0  0  0
 22 52  1  0  0  0  0
 24 53  1  0  0  0  0
 24 54  1  0  0  0  0
 24 55  1  0  0  0  0
 25 56  1  0  0  0  0
 25 57  1  0  0  0  0
 25 58  1  0  0  0  0
 26 59  1  0  0  0  0
 26 60  1  0  0  0  0
 29 61  1  0  0  0  0
M  CHG  1  29   1
M  END
> <SMILES>
COc1cc2c(cc1OCc1ccc(cc1)F)C1(CCN(C)CC1)CN2c1ccncc1

> <FORMATTED_ID>
H3D-016051

> <MOLFORMULA>
C26H28FN3O2

> <Exact Mass>
433.22

> <XLogP>
5

> <TPSA_NOPS>
37.8

> <s_m_source_file>
ligprep_h3d.sdf

> <i_m_source_file_index>
5441

> <i_lp_mmshare_version>
55123

> <i_f3d_flags>
0

> <s_epik_input>
W0NIMl0xW0NIMl1OKFtDSDNdKVtDSDJdW0NIMl1DMTJjM2MoTihbQ0gyXTIpYzRbY0hdW2NIXW5bY0hdW2NIXTQpW2NIXWMoT1tDSDNdKWMoW2NIXTMpT1tDSDJdYzVbY0hdW2NIXWMoRilbY0hdW2NIXTU=

> <s_epik_cmdline>
J2VwaWtfcHl0aG9uJywgJy1waHQnLCAnMC41JywgJy1waCcsICc3LjUnLCAnLXRuJywgJzgnLCAnLW1hJywgJzUwMCcsICctaW1hZScsICc8aW5maWxlLm1hZT4nLCAnLW9tYWUnLCAnPG91dGZpbGUubWFlPic=

> <r_lp_tautomer_probability>
1

> <r_epik_Ionization_Penalty>
0.130099

> <r_epik_Ionization_Penalty_Charging>
0.00689193

> <r_epik_Ionization_Penalty_Neutral>
0.123207

> <r_epik_State_Penalty>
0.112704

> <r_epik_Charging_Adjusted_Penalty>
0.119596

> <i_epik_Tot_Q>
1

> <i_epik_Tot_abs_Q>
1

> <s_lp_Force_Field>
S-OPLS

> <r_lp_Energy>
68.1742

> <b_lp_Chiralities_Consistent>
1

> <s_lp_Variant>
ligprep_h3d.sdf:5441-1

> <ROCS_ShapeQuery>
_7L13

> <ROCS_TanimotoCombo>
0.866 

> <ROCS_ShapeTanimoto>
0.744 

> <ROCS_ColorTanimoto>
0.122 

> <ROCS_RefTversky>
0.809 

> <ROCS_RefColorTversky>
0.229 

> <ROCS_RefTverskyCombo>
1.037 

> <ROCS_FitTversky>
0.903 

> <ROCS_FitColorTversky>
0.208 

> <ROCS_FitTverskyCombo>
1.111 

> <ROCS_ColorScore>
-2.069

> <ROCS_Overlap>
1335.093

> <ROCS_Rank>
131                 

$$$$
ligprep_h3d.sdf:1337_1096
  -OEChem-08212117123D

 64 68  0     0  0  0  0  0  0999 V2000
  -20.0325   -3.8702  -32.2265 C   0  0  0  0  0  0  0  0  0  0  0  0
  -19.4901   -4.0657  -33.5049 C   0  0  0  0  0  0  0  0  0  0  0  0
  -16.7255   -5.3179  -26.6279 C   0  0  0  0  0  0  0  0  0  0  0  0
  -20.8000   -6.1851  -32.1053 C   0  0  0  0  0  0  0  0  0  0  0  0
  -23.0639   -3.9785  -28.8206 C   0  0  0  0  0  0  0  0  0  0  0  0
  -20.7851   -4.5600  -25.3944 C   0  0  0  0  0  0  0  0  0  0  0  0
  -17.3060   -6.5987  -26.5624 C   0  0  0  0  0  0  0  0  0  0  0  0
  -20.9825   -4.6173  -27.8033 C   0  0  0  0  0  0  0  0  0  0  0  0
  -20.6740   -4.9103  -31.5427 C   0  0  0  0  0  0  0  0  0  0  0  0
  -21.2193   -4.6620  -30.2185 C   0  0  0  0  0  0  0  0  0  0  0  0
  -22.5302   -4.2203  -30.0889 C   0  0  0  0  0  0  0  0  0  0  0  0
  -20.4453   -4.8606  -29.0788 C   0  0  0  0  0  0  0  0  0  0  0  0
  -19.6078   -5.3377  -34.0830 C   0  0  0  0  0  0  0  0  0  0  0  0
  -22.3127   -4.1689  -27.6641 C   0  0  0  0  0  0  0  0  0  0  0  0
  -20.2257   -4.8090  -26.6394 C   0  0  0  0  0  0  0  0  0  0  0  0
  -20.2505   -6.3403  -33.3719 C   0  0  0  0  0  0  0  0  0  0  0  0
  -22.0940   -4.1239  -25.3586 C   0  0  0  0  0  0  0  0  0  0  0  0
  -17.7955   -4.4575  -26.6663 C   0  0  0  0  0  0  0  0  0  0  0  0
  -19.5835   -7.0813  -35.2694 C   0  0  0  0  0  0  0  0  0  0  0  0
  -22.7405   -3.8463  -24.0875 C   0  0  0  0  0  0  0  0  0  0  0  0
  -23.4049   -3.9895  -31.2802 C   0  0  0  0  0  0  0  0  0  0  0  0
  -19.0372   -5.3390  -29.2972 C   0  0  0  0  0  0  0  0  0  0  0  0
  -17.8401   -2.9839  -26.7388 C   0  0  0  0  0  0  0  0  0  0  0  0
  -19.4152   -8.1150  -36.3024 C   0  0  0  0  0  0  0  0  0  0  0  0
  -28.3759   -6.0240  -23.1307 C   0  0  0  0  0  0  0  0  0  0  0  0
  -24.9139   -3.7868  -22.8371 C   0  0  0  0  0  0  0  0  0  0  0  0
  -26.3851   -4.0852  -23.0537 C   0  0  0  0  0  0  0  0  0  0  0  0
  -18.6411   -6.5602  -26.5590 N   0  0  0  0  0  0  0  0  0  0  0  0
  -22.8582   -3.9264  -26.4572 N   0  0  0  0  0  0  0  0  0  0  0  0
  -19.1867   -5.8279  -35.2954 N   0  0  0  0  0  0  0  0  0  0  0  0
  -18.9085   -5.2447  -26.6228 N   0  0  0  0  0  0  0  0  0  0  0  0
  -24.1257   -4.0412  -24.0215 N   0  0  0  0  0  0  0  0  0  0  0  0
  -22.0785   -3.4341  -23.1176 O   0  0  0  0  0  0  0  0  0  0  0  0
  -26.5438   -5.8385  -24.9859 O   0  0  0  0  0  0  0  0  0  0  0  0
  -25.8709   -6.6209  -22.6823 O   0  0  0  0  0  0  0  0  0  0  0  0
  -20.2359   -7.4703  -34.1384 O   0  0  0  0  0  0  0  0  0  0  0  0
  -26.6659   -5.7591  -23.5403 S   0  0  0  0  0  0  0  0  0  0  0  0
  -19.9441   -2.8849  -31.7718 H   0  0  0  0  0  0  0  0  0  0  0  0
  -18.9958   -3.2527  -34.0267 H   0  0  0  0  0  0  0  0  0  0  0  0
  -15.6774   -5.0571  -26.6445 H   0  0  0  0  0  0  0  0  0  0  0  0
  -21.2916   -7.0054  -31.5952 H   0  0  0  0  0  0  0  0  0  0  0  0
  -24.0934   -3.6325  -28.7340 H   0  0  0  0  0  0  0  0  0  0  0  0
  -20.2206   -4.7004  -24.4767 H   0  0  0  0  0  0  0  0  0  0  0  0
  -16.8117   -7.5585  -26.5168 H   0  0  0  0  0  0  0  0  0  0  0  0
  -23.3013   -2.9567  -31.6301 H   0  0  0  0  0  0  0  0  0  0  0  0
  -23.1404   -4.6668  -32.1004 H   0  0  0  0  0  0  0  0  0  0  0  0
  -24.4578   -4.1746  -31.0376 H   0  0  0  0  0  0  0  0  0  0  0  0
  -19.0138   -6.4315  -29.3013 H   0  0  0  0  0  0  0  0  0  0  0  0
  -18.6465   -4.9695  -30.2494 H   0  0  0  0  0  0  0  0  0  0  0  0
  -18.3767   -4.9701  -28.5074 H   0  0  0  0  0  0  0  0  0  0  0  0
  -17.8559   -2.6380  -27.7853 H   0  0  0  0  0  0  0  0  0  0  0  0
  -18.7315   -2.5717  -26.2360 H   0  0  0  0  0  0  0  0  0  0  0  0
  -16.9696   -2.5189  -26.2452 H   0  0  0  0  0  0  0  0  0  0  0  0
  -18.4725   -8.6728  -36.1635 H   0  0  0  0  0  0  0  0  0  0  0  0
  -20.2394   -8.8514  -36.2963 H   0  0  0  0  0  0  0  0  0  0  0  0
  -19.4006   -7.6892  -37.3224 H   0  0  0  0  0  0  0  0  0  0  0  0
  -28.6402   -7.0475  -23.4012 H   0  0  0  0  0  0  0  0  0  0  0  0
  -28.5014   -5.8672  -22.0583 H   0  0  0  0  0  0  0  0  0  0  0  0
  -28.9794   -5.3113  -23.6948 H   0  0  0  0  0  0  0  0  0  0  0  0
  -24.7535   -2.7425  -22.5516 H   0  0  0  0  0  0  0  0  0  0  0  0
  -24.5130   -4.4264  -22.0449 H   0  0  0  0  0  0  0  0  0  0  0  0
  -26.7856   -3.4615  -23.8585 H   0  0  0  0  0  0  0  0  0  0  0  0
  -26.9727   -3.9122  -22.1471 H   0  0  0  0  0  0  0  0  0  0  0  0
  -24.6273   -4.3181  -24.8590 H   0  0  0  0  0  0  0  0  0  0  0  0
  1  2  1  0  0  0  0
  1  9  2  0  0  0  0
  2 13  2  0  0  0  0
  3  7  1  0  0  0  0
  3 18  2  0  0  0  0
  4  9  1  0  0  0  0
  4 16  2  0  0  0  0
  5 11  1  0  0  0  0
  5 14  2  0  0  0  0
  6 15  2  0  0  0  0
  6 17  1  0  0  0  0
  7 28  2  0  0  0  0
  8 12  2  0  0  0  0
  8 14  1  0  0  0  0
  8 15  1  0  0  0  0
  9 10  1  0  0  0  0
 10 11  2  0  0  0  0
 10 12  1  0  0  0  0
 11 21  1  0  0  0  0
 12 22  1  0  0  0  0
 13 16  1  0  0  0  0
 13 30  1  0  0  0  0
 14 29  1  0  0  0  0
 15 31  1  0  0  0  0
 16 36  1  0  0  0  0
 17 20  1  0  0  0  0
 17 29  2  0  0  0  0
 18 23  1  0  0  0  0
 18 31  1  0  0  0  0
 19 24  1  0  0  0  0
 19 30  2  0  0  0  0
 19 36  1  0  0  0  0
 20 32  1  0  0  0  0
 20 33  2  0  0  0  0
 25 37  1  0  0  0  0
 26 27  1  0  0  0  0
 26 32  1  0  0  0  0
 27 37  1  0  0  0  0
 28 31  1  0  0  0  0
 34 37  2  0  0  0  0
 35 37  2  0  0  0  0
  1 38  1  0  0  0  0
  2 39  1  0  0  0  0
  3 40  1  0  0  0  0
  4 41  1  0  0  0  0
  5 42  1  0  0  0  0
  6 43  1  0  0  0  0
  7 44  1  0  0  0  0
 21 45  1  0  0  0  0
 21 46  1  0  0  0  0
 21 47  1  0  0  0  0
 22 48  1  0  0  0  0
 22 49  1  0  0  0  0
 22 50  1  0  0  0  0
 23 51  1  0  0  0  0
 23 52  1  0  0  0  0
 23 53  1  0  0  0  0
 24 54  1  0  0  0  0
 24 55  1  0  0  0  0
 24 56  1  0  0  0  0
 25 57  1  0  0  0  0
 25 58  1  0  0  0  0
 25 59  1  0  0  0  0
 26 60  1  0  0  0  0
 26 61  1  0  0  0  0
 27 62  1  0  0  0  0
 27 63  1  0  0  0  0
 32 64  1  0  0  0  0
M  END
> <SMILES>
Cc1nc2ccc(cc2o1)-c1c(cc2nc(cc(c2c1C)-n1nccc1C)C(=O)NCCS(=O)(=O)C)C

> <FORMATTED_ID>
H3D-009074

> <MOLFORMULA>
C27H27N5O4S

> <Exact Mass>
517.18

> <XLogP>
4.29

> <TPSA_NOPS>
128.7

> <s_m_source_file>
ligprep_h3d.sdf

> <i_m_source_file_index>
1337

> <i_lp_mmshare_version>
55123

> <i_f3d_flags>
0

> <s_epik_input>
W0NIM11jKG4xKW9jKGMxMilbY0hdYyhbY0hdW2NIXTIpLWMoYyhbY0hdMylbQ0gzXSljKFtDSDNdKWMoYzM0KWMoLW41bltjSF1bY0hdYzVbQ0gzXSlbY0hdYyhuNClDKD1PKVtOSF1bQ0gyXVtDSDJdUyg9TykoPU8pW0NIM10=

> <s_epik_cmdline>
J2VwaWtfcHl0aG9uJywgJy1waHQnLCAnMC41JywgJy1waCcsICc3LjUnLCAnLXRuJywgJzgnLCAnLW1hJywgJzUwMCcsICctaW1hZScsICc8aW5maWxlLm1hZT4nLCAnLW9tYWUnLCAnPG91dGZpbGUubWFlPic=

> <r_lp_tautomer_probability>
1

> <r_epik_Ionization_Penalty>
2.16658e-05

> <r_epik_Ionization_Penalty_Charging>
0

> <r_epik_Ionization_Penalty_Neutral>
2.16658e-05

> <r_epik_State_Penalty>
-0

> <r_epik_Charging_Adjusted_Penalty>
0

> <i_epik_Tot_Q>
0

> <i_epik_Tot_abs_Q>
0

> <s_lp_Force_Field>
S-OPLS

> <r_lp_Energy>
37.4388

> <b_lp_Chiralities_Consistent>
1

> <s_lp_Variant>
ligprep_h3d.sdf:1337-1

> <ROCS_ShapeQuery>
_7L13

> <ROCS_TanimotoCombo>
0.767 

> <ROCS_ShapeTanimoto>
0.660 

> <ROCS_ColorTanimoto>
0.106 

> <ROCS_RefTversky>
0.809 

> <ROCS_RefColorTversky>
0.221 

> <ROCS_RefTverskyCombo>
1.030 

> <ROCS_FitTversky>
0.783 

> <ROCS_FitColorTversky>
0.170 

> <ROCS_FitTverskyCombo>
0.953 

> <ROCS_ColorScore>
-2.023

> <ROCS_Overlap>
1345.227

> <ROCS_Rank>
132                 

$$$$
ligprep_h3d.sdf:1166_1050
  -OEChem-08212117123D

 71 76  0     1  0  0  0  0  0999 V2000
  -16.6421   -4.9491  -26.6563 C   0  0  0  0  0  0  0  0  0  0  0  0
  -23.0910   -4.2289  -28.8104 C   0  0  0  0  0  0  0  0  0  0  0  0
  -20.7398   -4.4962  -25.3941 C   0  0  0  0  0  0  0  0  0  0  0  0
  -17.1104   -6.2716  -26.5396 C   0  0  0  0  0  0  0  0  0  0  0  0
  -20.9537   -4.6538  -27.7971 C   0  0  0  0  0  0  0  0  0  0  0  0
  -22.5503   -4.4688  -30.0760 C   0  0  0  0  0  0  0  0  0  0  0  0
  -20.4095   -4.8951  -29.0701 C   0  0  0  0  0  0  0  0  0  0  0  0
  -22.3158   -4.3148  -27.6572 C   0  0  0  0  0  0  0  0  0  0  0  0
  -20.1728   -4.7403  -26.6367 C   0  0  0  0  0  0  0  0  0  0  0  0
  -21.2079   -4.8024  -30.2064 C   0  0  0  0  0  0  0  0  0  0  0  0
  -22.0807   -4.1713  -25.3574 C   0  0  0  0  0  0  0  0  0  0  0  0
  -17.7820   -4.1847  -26.7089 C   0  0  0  0  0  0  0  0  0  0  0  0
  -19.4194   -6.6326  -36.1828 C   0  0  0  0  0  0  0  0  0  0  0  0
  -22.7364   -3.9045  -24.0886 C   0  0  0  0  0  0  0  0  0  0  0  0
  -20.2302   -4.2385  -33.7504 C   0  0  0  0  0  0  0  0  0  0  0  0
  -19.5068   -6.5671  -33.0073 C   0  0  0  0  0  0  0  0  0  0  0  0
  -20.0956   -3.9468  -32.2577 C   0  0  0  0  0  0  0  0  0  0  0  0
  -20.6851   -6.3894  -32.0473 C   0  0  0  0  0  0  0  0  0  0  0  0
  -18.1499   -5.3309  -34.7584 C   0  0  0  0  0  0  0  0  0  0  0  0
  -24.3934   -4.7795  -21.6287 C   0  0  0  0  0  0  0  0  0  0  0  0
  -26.8227   -4.5095  -21.5333 C   0  0  0  0  0  0  0  0  0  0  0  0
  -24.8889   -3.9863  -22.8235 C   0  0  2  0  0  0  0  0  0  0  0  0
  -26.3255   -4.4583  -22.9637 C   0  0  1  0  0  0  0  0  0  0  0  0
  -19.5371   -5.5446  -34.1584 C   0  0  0  0  0  0  0  0  0  0  0  0
  -23.4429   -4.3598  -31.2698 C   0  0  0  0  0  0  0  0  0  0  0  0
  -18.9710   -5.2610  -29.2987 C   0  0  0  0  0  0  0  0  0  0  0  0
  -17.9531   -2.7235  -26.8304 C   0  0  0  0  0  0  0  0  0  0  0  0
  -18.4438   -6.3466  -26.5191 N   0  0  0  0  0  0  0  0  0  0  0  0
  -22.8688   -4.0774  -26.4528 N   0  0  0  0  0  0  0  0  0  0  0  0
  -18.8232   -5.0616  -26.6235 N   0  0  0  0  0  0  0  0  0  0  0  0
  -18.1427   -6.2322  -35.8647 N   0  0  0  0  0  0  0  0  0  0  0  0
  -20.6750   -5.0407  -31.4717 N   0  0  0  0  0  0  0  0  0  0  0  0
  -24.0994   -4.2132  -23.9988 N   0  0  0  0  0  0  0  0  0  0  0  0
  -25.5943   -4.8409  -20.7268 N   0  3  0  0  0  0  0  0  0  0  0  0
  -19.7587   -7.3196  -37.1355 O   0  0  0  0  0  0  0  0  0  0  0  0
  -22.1026   -3.4038  -23.1418 O   0  0  0  0  0  0  0  0  0  0  0  0
  -20.2922   -6.1214  -35.2564 O   0  0  0  0  0  0  0  0  0  0  0  0
  -26.3489   -5.7194  -23.4736 F   0  0  0  0  0  0  0  0  0  0  0  0
  -15.6203   -4.6009  -26.6960 H   0  0  0  0  0  0  0  0  0  0  0  0
  -24.1450   -3.9669  -28.7238 H   0  0  0  0  0  0  0  0  0  0  0  0
  -20.1568   -4.5554  -24.4794 H   0  0  0  0  0  0  0  0  0  0  0  0
  -16.5354   -7.1837  -26.4685 H   0  0  0  0  0  0  0  0  0  0  0  0
  -21.3003   -4.2825  -33.9941 H   0  0  0  0  0  0  0  0  0  0  0  0
  -19.8063   -3.3990  -34.3194 H   0  0  0  0  0  0  0  0  0  0  0  0
  -18.5674   -6.4703  -32.4518 H   0  0  0  0  0  0  0  0  0  0  0  0
  -19.5472   -7.5843  -33.4116 H   0  0  0  0  0  0  0  0  0  0  0  0
  -19.0329   -3.8280  -32.0180 H   0  0  0  0  0  0  0  0  0  0  0  0
  -20.5985   -3.0046  -32.0109 H   0  0  0  0  0  0  0  0  0  0  0  0
  -21.6289   -6.5614  -32.5770 H   0  0  0  0  0  0  0  0  0  0  0  0
  -20.6068   -7.1422  -31.2554 H   0  0  0  0  0  0  0  0  0  0  0  0
  -17.9611   -4.3093  -35.0984 H   0  0  0  0  0  0  0  0  0  0  0  0
  -17.3448   -5.6381  -34.0833 H   0  0  0  0  0  0  0  0  0  0  0  0
  -24.1382   -5.8150  -21.8775 H   0  0  0  0  0  0  0  0  0  0  0  0
  -23.5758   -4.3005  -21.0836 H   0  0  0  0  0  0  0  0  0  0  0  0
  -27.1720   -3.5354  -21.1792 H   0  0  0  0  0  0  0  0  0  0  0  0
  -27.5649   -5.2902  -21.3514 H   0  0  0  0  0  0  0  0  0  0  0  0
  -24.8640   -2.9118  -22.6001 H   0  0  0  0  0  0  0  0  0  0  0  0
  -26.9355   -3.8158  -23.6043 H   0  0  0  0  0  0  0  0  0  0  0  0
  -23.4309   -3.3357  -31.6595 H   0  0  0  0  0  0  0  0  0  0  0  0
  -23.1225   -5.0418  -32.0666 H   0  0  0  0  0  0  0  0  0  0  0  0
  -24.4761   -4.6265  -31.0165 H   0  0  0  0  0  0  0  0  0  0  0  0
  -18.8547   -6.3476  -29.2688 H   0  0  0  0  0  0  0  0  0  0  0  0
  -18.6263   -4.8922  -30.2693 H   0  0  0  0  0  0  0  0  0  0  0  0
  -18.3304   -4.8127  -28.5333 H   0  0  0  0  0  0  0  0  0  0  0  0
  -18.0098   -2.4168  -27.8876 H   0  0  0  0  0  0  0  0  0  0  0  0
  -18.8710   -2.3714  -26.3295 H   0  0  0  0  0  0  0  0  0  0  0  0
  -17.1202   -2.1694  -26.3647 H   0  0  0  0  0  0  0  0  0  0  0  0
  -17.3069   -6.5369  -36.3515 H   0  0  0  0  0  0  0  0  0  0  0  0
  -24.5835   -4.5609  -24.8200 H   0  0  0  0  0  0  0  0  0  0  0  0
  -25.6749   -5.7740  -20.3000 H   0  0  0  0  0  0  0  0  0  0  0  0
  -25.4943   -4.1728  -19.9501 H   0  0  0  0  0  0  0  0  0  0  0  0
  1  4  1  0  0  0  0
  1 12  2  0  0  0  0
  2  6  2  0  0  0  0
  2  8  1  0  0  0  0
  3  9  1  0  0  0  0
  3 11  2  0  0  0  0
  4 28  2  0  0  0  0
  5  7  1  0  0  0  0
  5  8  1  0  0  0  0
  5  9  2  0  0  0  0
  6 10  1  0  0  0  0
  6 25  1  0  0  0  0
  7 10  2  0  0  0  0
  7 26  1  0  0  0  0
  8 29  2  0  0  0  0
  9 30  1  0  0  0  0
 10 32  1  0  0  0  0
 11 14  1  0  0  0  0
 11 29  1  0  0  0  0
 12 27  1  0  0  0  0
 12 30  1  0  0  0  0
 13 31  1  0  0  0  0
 13 35  2  0  0  0  0
 13 37  1  0  0  0  0
 14 33  1  0  0  0  0
 14 36  2  0  0  0  0
 15 17  1  0  0  0  0
 15 24  1  0  0  0  0
 16 18  1  0  0  0  0
 16 24  1  0  0  0  0
 17 32  1  0  0  0  0
 18 32  1  0  0  0  0
 19 24  1  0  0  0  0
 19 31  1  0  0  0  0
 20 22  1  0  0  0  0
 20 34  1  0  0  0  0
 21 23  1  0  0  0  0
 21 34  1  0  0  0  0
 22 23  1  0  0  0  0
 22 33  1  0  0  0  0
 23 38  1  0  0  0  0
 24 37  1  0  0  0  0
 28 30  1  0  0  0  0
  1 39  1  0  0  0  0
  2 40  1  0  0  0  0
  3 41  1  0  0  0  0
  4 42  1  0  0  0  0
 15 43  1  0  0  0  0
 15 44  1  0  0  0  0
 16 45  1  0  0  0  0
 16 46  1  0  0  0  0
 17 47  1  0  0  0  0
 17 48  1  0  0  0  0
 18 49  1  0  0  0  0
 18 50  1  0  0  0  0
 19 51  1  0  0  0  0
 19 52  1  0  0  0  0
 20 53  1  0  0  0  0
 20 54  1  0  0  0  0
 21 55  1  0  0  0  0
 21 56  1  0  0  0  0
 22 57  1  0  0  0  0
 23 58  1  0  0  0  0
 25 59  1  0  0  0  0
 25 60  1  0  0  0  0
 25 61  1  0  0  0  0
 26 62  1  0  0  0  0
 26 63  1  0  0  0  0
 26 64  1  0  0  0  0
 27 65  1  0  0  0  0
 27 66  1  0  0  0  0
 27 67  1  0  0  0  0
 31 68  1  0  0  0  0
 33 69  1  0  0  0  0
 34 70  1  0  0  0  0
 34 71  1  0  0  0  0
M  CHG  1  34   1
M  END
> <SMILES>
Cc1cc2nc(cc(c2c(c1N1CCC2(CC1)CNC(=O)O2)C)-n1nccc1C)C(=O)N[C@@H]1CNC[C@@H]1F

> <FORMATTED_ID>
H3D-008143

> <MOLFORMULA>
C27H32FN7O3

> <Exact Mass>
521.26

> <XLogP>
1.3

> <TPSA_NOPS>
113.4

> <s_m_source_file>
ligprep_h3d.sdf

> <i_m_source_file_index>
1166

> <i_lp_mmshare_version>
55123

> <i_f3d_flags>
0

> <s_epik_input>
Tz1DKE8xKVtOSF1bQ0gyXUMxMltDSDJdW0NIMl1OKFtDSDJdW0NIMl0yKWMoYyhbQ0gzXSlbY0hdMyljKFtDSDNdKWMoYzM0KWMoLW41bltjSF1bY0hdYzVbQ0gzXSlbY0hdYyhuNClDKD1PKVtOSF1bQ0BASF02W0NIMl1bTkhdW0NIMl1bQ0BASF02Rg==

> <s_epik_cmdline>
J2VwaWtfcHl0aG9uJywgJy1waHQnLCAnMC41JywgJy1waCcsICc3LjUnLCAnLXRuJywgJzgnLCAnLW1hJywgJzUwMCcsICctaW1hZScsICc8aW5maWxlLm1hZT4nLCAnLW9tYWUnLCAnPG91dGZpbGUubWFlPic=

> <r_lp_tautomer_probability>
1

> <r_epik_Ionization_Penalty>
0.0140054

> <r_epik_Ionization_Penalty_Charging>
0.0139022

> <r_epik_Ionization_Penalty_Neutral>
0.000103161

> <r_epik_State_Penalty>
0.0108452

> <r_epik_Charging_Adjusted_Penalty>
0.0247475

> <i_epik_Tot_Q>
1

> <i_epik_Tot_abs_Q>
1

> <s_epik_Chemistry_Notes>
This compound has an ester and may undergo hydrolysis at high or low pH.

> <s_lp_Force_Field>
S-OPLS

> <r_lp_Energy>
70.2154

> <b_lp_Chiralities_Consistent>
1

> <s_lp_Variant>
ligprep_h3d.sdf:1166-1

> <ROCS_ShapeQuery>
_7L13

> <ROCS_TanimotoCombo>
0.738 

> <ROCS_ShapeTanimoto>
0.641 

> <ROCS_ColorTanimoto>
0.097 

> <ROCS_RefTversky>
0.809 

> <ROCS_RefColorTversky>
0.220 

> <ROCS_RefTverskyCombo>
1.028 

> <ROCS_FitTversky>
0.755 

> <ROCS_FitColorTversky>
0.148 

> <ROCS_FitTverskyCombo>
0.903 

> <ROCS_ColorScore>
-2.033

> <ROCS_Overlap>
1348.015

> <ROCS_Rank>
133                 

$$$$
ligprep_h3d.sdf:5345_537
  -OEChem-08212117123D

 77 83  0     0  0  0  0  0  0999 V2000
  -19.8740   -6.3365  -36.0840 C   0  0  0  0  0  0  0  0  0  0  0  0
  -19.8757   -7.4419  -35.2334 C   0  0  0  0  0  0  0  0  0  0  0  0
  -19.7928   -5.0488  -35.5541 C   0  0  0  0  0  0  0  0  0  0  0  0
  -19.7964   -7.2597  -33.8527 C   0  0  0  0  0  0  0  0  0  0  0  0
  -19.7134   -4.8665  -34.1735 C   0  0  0  0  0  0  0  0  0  0  0  0
  -22.7305   -4.0546  -28.8499 C   0  0  0  0  0  0  0  0  0  0  0  0
  -19.9847   -4.6149  -29.1311 C   0  0  0  0  0  0  0  0  0  0  0  0
  -14.6388   -5.8053  -25.5555 C   0  0  0  0  0  0  0  0  0  0  0  0
  -14.5407   -7.0319  -26.1585 C   0  0  0  0  0  0  0  0  0  0  0  0
  -21.9192   -4.2322  -27.7357 C   0  0  0  0  0  0  0  0  0  0  0  0
  -19.7152   -5.9719  -33.3228 C   0  0  0  0  0  0  0  0  0  0  0  0
  -20.5527   -4.5092  -27.8667 C   0  0  0  0  0  0  0  0  0  0  0  0
  -22.1572   -4.1521  -30.1171 C   0  0  0  0  0  0  0  0  0  0  0  0
  -20.7928   -4.4318  -30.2568 C   0  0  0  0  0  0  0  0  0  0  0  0
  -16.6109   -6.3095  -26.4359 C   0  0  0  0  0  0  0  0  0  0  0  0
  -18.0439   -6.1163  -26.7857 C   0  0  0  0  0  0  0  0  0  0  0  0
  -17.8093   -4.0003  -25.6175 C   0  0  0  0  0  0  0  0  0  0  0  0
  -16.5127   -4.2002  -25.3144 C   0  0  0  0  0  0  0  0  0  0  0  0
  -18.6239   -4.9680  -26.3734 C   0  0  0  0  0  0  0  0  0  0  0  0
  -23.5573   -2.9708  -24.4346 C   0  0  0  0  0  0  0  0  0  0  0  0
  -23.6550   -5.5003  -24.4999 C   0  0  0  0  0  0  0  0  0  0  0  0
  -23.0859   -2.9463  -25.8896 C   0  0  0  0  0  0  0  0  0  0  0  0
  -23.1423   -5.4841  -25.9430 C   0  0  0  0  0  0  0  0  0  0  0  0
  -20.9039   -4.2649  -25.5993 C   0  0  0  0  0  0  0  0  0  0  0  0
  -25.9380   -5.1700  -22.4427 C   0  0  0  0  0  0  0  0  0  0  0  0
  -25.0756   -2.8529  -22.1799 C   0  0  0  0  0  0  0  0  0  0  0  0
  -26.2150   -5.1675  -20.9489 C   0  0  0  0  0  0  0  0  0  0  0  0
  -25.3977   -2.9699  -20.6997 C   0  0  0  0  0  0  0  0  0  0  0  0
  -24.4015   -4.2127  -24.1653 C   0  0  0  0  0  0  0  0  0  0  0  0
  -22.3127   -4.2231  -26.2769 C   0  0  0  0  0  0  0  0  0  0  0  0
  -23.0571   -2.6532  -31.7293 C   0  0  0  0  0  0  0  0  0  0  0  0
  -19.6300   -5.7751  -31.8377 C   0  0  0  0  0  0  0  0  0  0  0  0
  -15.9358   -5.3750  -25.7408 N   0  0  0  0  0  0  0  0  0  0  0  0
  -15.7747   -7.3182  -26.6946 N   0  3  0  0  0  0  0  0  0  0  0  0
  -19.9199   -4.6538  -26.6169 N   0  0  0  0  0  0  0  0  0  0  0  0
  -24.7820   -4.2357  -22.7127 N   0  3  0  0  0  0  0  0  0  0  0  0
  -26.5081   -3.8449  -20.4961 O   0  0  0  0  0  0  0  0  0  0  0  0
  -22.9412   -3.9795  -31.2188 O   0  0  0  0  0  0  0  0  0  0  0  0
  -20.2359   -4.5303  -31.4978 O   0  0  0  0  0  0  0  0  0  0  0  0
  -19.9345   -6.4787  -37.1591 H   0  0  0  0  0  0  0  0  0  0  0  0
  -19.9379   -8.4447  -35.6459 H   0  0  0  0  0  0  0  0  0  0  0  0
  -19.7903   -4.1880  -36.2161 H   0  0  0  0  0  0  0  0  0  0  0  0
  -19.7986   -8.1268  -33.1976 H   0  0  0  0  0  0  0  0  0  0  0  0
  -19.6505   -3.8595  -33.7696 H   0  0  0  0  0  0  0  0  0  0  0  0
  -23.7916   -3.8545  -28.7402 H   0  0  0  0  0  0  0  0  0  0  0  0
  -18.9285   -4.8302  -29.2597 H   0  0  0  0  0  0  0  0  0  0  0  0
  -13.9584   -5.1744  -25.0155 H   0  0  0  0  0  0  0  0  0  0  0  0
  -13.7638   -7.7588  -26.2897 H   0  0  0  0  0  0  0  0  0  0  0  0
  -18.5674   -6.8814  -27.3455 H   0  0  0  0  0  0  0  0  0  0  0  0
  -18.2919   -3.0822  -25.2940 H   0  0  0  0  0  0  0  0  0  0  0  0
  -15.9059   -3.4962  -24.7599 H   0  0  0  0  0  0  0  0  0  0  0  0
  -22.6874   -2.9453  -23.7666 H   0  0  0  0  0  0  0  0  0  0  0  0
  -24.1426   -2.0657  -24.2321 H   0  0  0  0  0  0  0  0  0  0  0  0
  -24.3172   -6.3644  -24.3661 H   0  0  0  0  0  0  0  0  0  0  0  0
  -22.8125   -5.6416  -23.8124 H   0  0  0  0  0  0  0  0  0  0  0  0
  -23.9676   -2.8300  -26.5336 H   0  0  0  0  0  0  0  0  0  0  0  0
  -22.4699   -2.0537  -26.0588 H   0  0  0  0  0  0  0  0  0  0  0  0
  -22.5559   -6.3939  -26.1268 H   0  0  0  0  0  0  0  0  0  0  0  0
  -24.0101   -5.5429  -26.6141 H   0  0  0  0  0  0  0  0  0  0  0  0
  -20.6258   -3.2742  -25.2156 H   0  0  0  0  0  0  0  0  0  0  0  0
  -20.8719   -4.9577  -24.7511 H   0  0  0  0  0  0  0  0  0  0  0  0
  -25.6515   -6.1645  -22.7928 H   0  0  0  0  0  0  0  0  0  0  0  0
  -26.7937   -4.7942  -23.0113 H   0  0  0  0  0  0  0  0  0  0  0  0
  -25.9265   -2.4654  -22.7478 H   0  0  0  0  0  0  0  0  0  0  0  0
  -24.1892   -2.2363  -22.3475 H   0  0  0  0  0  0  0  0  0  0  0  0
  -27.0891   -5.7907  -20.7352 H   0  0  0  0  0  0  0  0  0  0  0  0
  -25.3725   -5.5762  -20.3783 H   0  0  0  0  0  0  0  0  0  0  0  0
  -24.5356   -3.3253  -20.1228 H   0  0  0  0  0  0  0  0  0  0  0  0
  -25.6751   -1.9876  -20.3045 H   0  0  0  0  0  0  0  0  0  0  0  0
  -25.3429   -4.1622  -24.7245 H   0  0  0  0  0  0  0  0  0  0  0  0
  -23.7089   -2.6552  -32.6063 H   0  0  0  0  0  0  0  0  0  0  0  0
  -22.0668   -2.2777  -31.9989 H   0  0  0  0  0  0  0  0  0  0  0  0
  -23.4901   -2.0120  -30.9579 H   0  0  0  0  0  0  0  0  0  0  0  0
  -20.1467   -6.5810  -31.3054 H   0  0  0  0  0  0  0  0  0  0  0  0
  -18.5858   -5.7686  -31.5067 H   0  0  0  0  0  0  0  0  0  0  0  0
  -16.0124   -8.1636  -27.2061 H   0  0  0  0  0  0  0  0  0  0  0  0
  -23.9676   -4.5973  -22.1950 H   0  0  0  0  0  0  0  0  0  0  0  0
  1  2  2  0  0  0  0
  1  3  1  0  0  0  0
  2  4  1  0  0  0  0
  3  5  2  0  0  0  0
  4 11  2  0  0  0  0
  5 11  1  0  0  0  0
  6 10  1  0  0  0  0
  6 13  2  0  0  0  0
  7 12  1  0  0  0  0
  7 14  2  0  0  0  0
  8  9  2  0  0  0  0
  8 33  1  0  0  0  0
  9 34  1  0  0  0  0
 10 12  2  0  0  0  0
 10 30  1  0  0  0  0
 11 32  1  0  0  0  0
 12 35  1  0  0  0  0
 13 14  1  0  0  0  0
 13 38  1  0  0  0  0
 14 39  1  0  0  0  0
 15 16  1  0  0  0  0
 15 33  1  0  0  0  0
 15 34  2  0  0  0  0
 16 19  2  0  0  0  0
 17 18  2  0  0  0  0
 17 19  1  0  0  0  0
 18 33  1  0  0  0  0
 19 35  1  0  0  0  0
 20 22  1  0  0  0  0
 20 29  1  0  0  0  0
 21 23  1  0  0  0  0
 21 29  1  0  0  0  0
 22 30  1  0  0  0  0
 23 30  1  0  0  0  0
 24 30  1  0  0  0  0
 24 35  1  0  0  0  0
 25 27  1  0  0  0  0
 25 36  1  0  0  0  0
 26 28  1  0  0  0  0
 26 36  1  0  0  0  0
 27 37  1  0  0  0  0
 28 37  1  0  0  0  0
 29 36  1  0  0  0  0
 31 38  1  0  0  0  0
 32 39  1  0  0  0  0
  1 40  1  0  0  0  0
  2 41  1  0  0  0  0
  3 42  1  0  0  0  0
  4 43  1  0  0  0  0
  5 44  1  0  0  0  0
  6 45  1  0  0  0  0
  7 46  1  0  0  0  0
  8 47  1  0  0  0  0
  9 48  1  0  0  0  0
 16 49  1  0  0  0  0
 17 50  1  0  0  0  0
 18 51  1  0  0  0  0
 20 52  1  0  0  0  0
 20 53  1  0  0  0  0
 21 54  1  0  0  0  0
 21 55  1  0  0  0  0
 22 56  1  0  0  0  0
 22 57  1  0  0  0  0
 23 58  1  0  0  0  0
 23 59  1  0  0  0  0
 24 60  1  0  0  0  0
 24 61  1  0  0  0  0
 25 62  1  0  0  0  0
 25 63  1  0  0  0  0
 26 64  1  0  0  0  0
 26 65  1  0  0  0  0
 27 66  1  0  0  0  0
 27 67  1  0  0  0  0
 28 68  1  0  0  0  0
 28 69  1  0  0  0  0
 29 70  1  0  0  0  0
 31 71  1  0  0  0  0
 31 72  1  0  0  0  0
 31 73  1  0  0  0  0
 32 74  1  0  0  0  0
 32 75  1  0  0  0  0
 34 76  1  0  0  0  0
 36 77  1  0  0  0  0
M  CHG  2  34   1  36   1
M  END
> <SMILES>
COc1cc2c(cc1OCc1ccccc1)N(CC12CCC(CC1)N1CCOCC1)c1ccn2ccnc2c1

> <FORMATTED_ID>
H3D-014976

> <MOLFORMULA>
C32H36N4O3

> <Exact Mass>
524.28

> <XLogP>
6.53

> <TPSA_NOPS>
51.5

> <s_m_source_file>
ligprep_h3d.sdf

> <i_m_source_file_index>
5345

> <i_lp_mmshare_version>
55123

> <i_f3d_flags>
0

> <s_epik_input>
W2NIXTFbY0hdW2NIXVtjSF1bY0hdYzFbQ0gyXU9jKGMoW2NIXTIpT1tDSDNdKVtjSF1jKE4oW0NIMl0zKWMoW2NIXVtjSF00KVtjSF1jKG40NSluW2NIXVtjSF01KWMyW0NAXTM2W0NIMl1bQ0gyXVtDQEhdKFtDSDJdW0NIMl02KU43W0NIMl1bQ0gyXU9bQ0gyXVtDSDJdNw==

> <s_epik_cmdline>
J2VwaWtfcHl0aG9uJywgJy1waHQnLCAnMC41JywgJy1waCcsICc3LjUnLCAnLXRuJywgJzgnLCAnLW1hJywgJzUwMCcsICctaW1hZScsICc8aW5maWxlLm1hZT4nLCAnLW9tYWUnLCAnPG91dGZpbGUubWFlPic=

> <r_lp_tautomer_probability>
1

> <r_epik_Ionization_Penalty>
0.642505

> <r_epik_Ionization_Penalty_Charging>
0.306057

> <r_epik_Ionization_Penalty_Neutral>
0.336448

> <r_epik_State_Penalty>
0.631099

> <r_epik_Charging_Adjusted_Penalty>
0.937156

> <i_epik_Tot_Q>
2

> <i_epik_Tot_abs_Q>
2

> <s_lp_Force_Field>
S-OPLS

> <r_lp_Energy>
88.4458

> <b_lp_Chiralities_Consistent>
1

> <s_lp_Variant>
ligprep_h3d.sdf:5345-1

> <ROCS_ShapeQuery>
_7L13

> <ROCS_TanimotoCombo>
0.724 

> <ROCS_ShapeTanimoto>
0.635 

> <ROCS_ColorTanimoto>
0.090 

> <ROCS_RefTversky>
0.809 

> <ROCS_RefColorTversky>
0.205 

> <ROCS_RefTverskyCombo>
1.013 

> <ROCS_FitTversky>
0.747 

> <ROCS_FitColorTversky>
0.137 

> <ROCS_FitTverskyCombo>
0.884 

> <ROCS_ColorScore>
-1.894

> <ROCS_Overlap>
1348.932

> <ROCS_Rank>
134                 

$$$$
ligprep_h3d.sdf:5412_1062
  -OEChem-08212117123D

 76 81  0     0  0  0  0  0  0999 V2000
  -21.2195   -4.6156  -33.9406 C   0  0  0  0  0  0  0  0  0  0  0  0
  -20.4377   -6.4866  -32.6272 C   0  0  0  0  0  0  0  0  0  0  0  0
  -20.3425   -4.9689  -34.9661 C   0  0  0  0  0  0  0  0  0  0  0  0
  -19.5607   -6.8400  -33.6527 C   0  0  0  0  0  0  0  0  0  0  0  0
  -23.6278   -3.9318  -27.7538 C   0  0  0  0  0  0  0  0  0  0  0  0
  -20.9564   -4.4525  -28.5018 C   0  0  0  0  0  0  0  0  0  0  0  0
  -15.1763   -5.8493  -26.0536 C   0  0  0  0  0  0  0  0  0  0  0  0
  -15.1848   -7.0994  -25.4923 C   0  0  0  0  0  0  0  0  0  0  0  0
  -22.6707   -4.2384  -26.7943 C   0  0  0  0  0  0  0  0  0  0  0  0
  -21.2671   -5.3744  -32.7711 C   0  0  0  0  0  0  0  0  0  0  0  0
  -21.3514   -4.4947  -27.1726 C   0  0  0  0  0  0  0  0  0  0  0  0
  -23.2444   -3.8858  -29.0957 C   0  0  0  0  0  0  0  0  0  0  0  0
  -21.9177   -4.1444  -29.4666 C   0  0  0  0  0  0  0  0  0  0  0  0
  -19.5131   -6.0811  -34.8221 C   0  0  0  0  0  0  0  0  0  0  0  0
  -17.2787   -6.4033  -25.6162 C   0  0  0  0  0  0  0  0  0  0  0  0
  -18.7557   -6.2342  -25.5586 C   0  0  0  0  0  0  0  0  0  0  0  0
  -18.3196   -4.0689  -26.5678 C   0  0  0  0  0  0  0  0  0  0  0  0
  -16.9856   -4.2479  -26.6084 C   0  0  0  0  0  0  0  0  0  0  0  0
  -19.2565   -5.0728  -26.0332 C   0  0  0  0  0  0  0  0  0  0  0  0
  -23.8524   -5.4605  -24.9306 C   0  0  0  0  0  0  0  0  0  0  0  0
  -23.3116   -3.0044  -24.6893 C   0  0  0  0  0  0  0  0  0  0  0  0
  -21.4070   -4.7084  -24.8409 C   0  0  0  0  0  0  0  0  0  0  0  0
  -24.1291   -5.5374  -23.4334 C   0  0  0  0  0  0  0  0  0  0  0  0
  -23.5919   -3.0990  -23.1938 C   0  0  0  0  0  0  0  0  0  0  0  0
  -22.8531   -4.3455  -25.2934 C   0  0  0  0  0  0  0  0  0  0  0  0
  -27.2469   -5.1211  -22.3607 C   0  0  0  0  0  0  0  0  0  0  0  0
  -26.7955   -4.9827  -19.9025 C   0  0  0  0  0  0  0  0  0  0  0  0
  -24.3443   -2.2074  -30.3720 C   0  0  0  0  0  0  0  0  0  0  0  0
  -22.2109   -4.9953  -31.6680 C   0  0  0  0  0  0  0  0  0  0  0  0
  -25.0083   -4.2443  -21.4929 C   0  0  0  0  0  0  0  0  0  0  0  0
  -26.1693   -5.2245  -21.2799 C   0  0  0  0  0  0  0  0  0  0  0  0
  -16.4902   -5.4360  -26.1208 N   0  0  0  0  0  0  0  0  0  0  0  0
  -16.4978   -7.4165  -25.2324 N   0  3  0  0  0  0  0  0  0  0  0  0
  -20.5730   -4.7783  -26.0456 N   0  0  0  0  0  0  0  0  0  0  0  0
  -24.6008   -4.1919  -22.9399 N   0  3  0  0  0  0  0  0  0  0  0  0
  -25.6641   -6.5621  -21.2988 O   0  0  0  0  0  0  0  0  0  0  0  0
  -24.1766   -3.5847  -30.0439 O   0  0  0  0  0  0  0  0  0  0  0  0
  -21.5511   -4.0968  -30.7794 O   0  0  0  0  0  0  0  0  0  0  0  0
  -18.6727   -6.4222  -35.8079 F   0  0  0  0  0  0  0  0  0  0  0  0
  -21.8613   -3.7468  -34.0616 H   0  0  0  0  0  0  0  0  0  0  0  0
  -20.4681   -7.0840  -31.7197 H   0  0  0  0  0  0  0  0  0  0  0  0
  -20.3058   -4.3787  -35.8768 H   0  0  0  0  0  0  0  0  0  0  0  0
  -18.9145   -7.7056  -33.5408 H   0  0  0  0  0  0  0  0  0  0  0  0
  -24.6559   -3.7311  -27.4688 H   0  0  0  0  0  0  0  0  0  0  0  0
  -19.9331   -4.6497  -28.8024 H   0  0  0  0  0  0  0  0  0  0  0  0
  -14.4096   -5.1916  -26.4172 H   0  0  0  0  0  0  0  0  0  0  0  0
  -14.4400   -7.8257  -25.2334 H   0  0  0  0  0  0  0  0  0  0  0  0
  -19.3708   -7.0255  -25.1485 H   0  0  0  0  0  0  0  0  0  0  0  0
  -18.7397   -3.1408  -26.9454 H   0  0  0  0  0  0  0  0  0  0  0  0
  -16.2892   -3.5172  -26.9986 H   0  0  0  0  0  0  0  0  0  0  0  0
  -23.4860   -6.4347  -25.2802 H   0  0  0  0  0  0  0  0  0  0  0  0
  -24.8056   -5.2962  -25.4512 H   0  0  0  0  0  0  0  0  0  0  0  0
  -24.2246   -2.6572  -25.1918 H   0  0  0  0  0  0  0  0  0  0  0  0
  -22.5591   -2.2249  -24.8666 H   0  0  0  0  0  0  0  0  0  0  0  0
  -20.9937   -3.9566  -24.1576 H   0  0  0  0  0  0  0  0  0  0  0  0
  -21.3736   -5.6735  -24.3207 H   0  0  0  0  0  0  0  0  0  0  0  0
  -24.9277   -6.2588  -23.2301 H   0  0  0  0  0  0  0  0  0  0  0  0
  -23.2398   -5.8113  -22.8566 H   0  0  0  0  0  0  0  0  0  0  0  0
  -22.6935   -3.3329  -22.6132 H   0  0  0  0  0  0  0  0  0  0  0  0
  -24.0251   -2.1624  -22.8274 H   0  0  0  0  0  0  0  0  0  0  0  0
  -26.8320   -5.2892  -23.3598 H   0  0  0  0  0  0  0  0  0  0  0  0
  -27.7167   -4.1305  -22.3456 H   0  0  0  0  0  0  0  0  0  0  0  0
  -28.0582   -5.8370  -22.1906 H   0  0  0  0  0  0  0  0  0  0  0  0
  -26.0398   -5.0522  -19.1115 H   0  0  0  0  0  0  0  0  0  0  0  0
  -27.2692   -3.9973  -19.8426 H   0  0  0  0  0  0  0  0  0  0  0  0
  -27.5490   -5.7459  -19.6761 H   0  0  0  0  0  0  0  0  0  0  0  0
  -25.1159   -2.1062  -31.1392 H   0  0  0  0  0  0  0  0  0  0  0  0
  -23.3976   -1.8009  -30.7364 H   0  0  0  0  0  0  0  0  0  0  0  0
  -24.6514   -1.6633  -29.4757 H   0  0  0  0  0  0  0  0  0  0  0  0
  -23.1064   -4.5082  -32.0686 H   0  0  0  0  0  0  0  0  0  0  0  0
  -22.5312   -5.8818  -31.1100 H   0  0  0  0  0  0  0  0  0  0  0  0
  -24.1135   -4.5593  -20.9462 H   0  0  0  0  0  0  0  0  0  0  0  0
  -25.2713   -3.2218  -21.2045 H   0  0  0  0  0  0  0  0  0  0  0  0
  -16.8221   -8.2841  -24.8142 H   0  0  0  0  0  0  0  0  0  0  0  0
  -25.4495   -3.9526  -23.4710 H   0  0  0  0  0  0  0  0  0  0  0  0
  -26.4186   -7.1399  -21.1125 H   0  0  0  0  0  0  0  0  0  0  0  0
  1  3  1  0  0  0  0
  1 10  2  0  0  0  0
  2  4  2  0  0  0  0
  2 10  1  0  0  0  0
  3 14  2  0  0  0  0
  4 14  1  0  0  0  0
  5  9  1  0  0  0  0
  5 12  2  0  0  0  0
  6 11  1  0  0  0  0
  6 13  2  0  0  0  0
  7  8  2  0  0  0  0
  7 32  1  0  0  0  0
  8 33  1  0  0  0  0
  9 11  2  0  0  0  0
  9 25  1  0  0  0  0
 10 29  1  0  0  0  0
 11 34  1  0  0  0  0
 12 13  1  0  0  0  0
 12 37  1  0  0  0  0
 13 38  1  0  0  0  0
 14 39  1  0  0  0  0
 15 16  1  0  0  0  0
 15 32  1  0  0  0  0
 15 33  2  0  0  0  0
 16 19  2  0  0  0  0
 17 18  2  0  0  0  0
 17 19  1  0  0  0  0
 18 32  1  0  0  0  0
 19 34  1  0  0  0  0
 20 23  1  0  0  0  0
 20 25  1  0  0  0  0
 21 24  1  0  0  0  0
 21 25  1  0  0  0  0
 22 25  1  0  0  0  0
 22 34  1  0  0  0  0
 23 35  1  0  0  0  0
 24 35  1  0  0  0  0
 26 31  1  0  0  0  0
 27 31  1  0  0  0  0
 28 37  1  0  0  0  0
 29 38  1  0  0  0  0
 30 31  1  0  0  0  0
 30 35  1  0  0  0  0
 31 36  1  0  0  0  0
  1 40  1  0  0  0  0
  2 41  1  0  0  0  0
  3 42  1  0  0  0  0
  4 43  1  0  0  0  0
  5 44  1  0  0  0  0
  6 45  1  0  0  0  0
  7 46  1  0  0  0  0
  8 47  1  0  0  0  0
 16 48  1  0  0  0  0
 17 49  1  0  0  0  0
 18 50  1  0  0  0  0
 20 51  1  0  0  0  0
 20 52  1  0  0  0  0
 21 53  1  0  0  0  0
 21 54  1  0  0  0  0
 22 55  1  0  0  0  0
 22 56  1  0  0  0  0
 23 57  1  0  0  0  0
 23 58  1  0  0  0  0
 24 59  1  0  0  0  0
 24 60  1  0  0  0  0
 26 61  1  0  0  0  0
 26 62  1  0  0  0  0
 26 63  1  0  0  0  0
 27 64  1  0  0  0  0
 27 65  1  0  0  0  0
 27 66  1  0  0  0  0
 28 67  1  0  0  0  0
 28 68  1  0  0  0  0
 28 69  1  0  0  0  0
 29 70  1  0  0  0  0
 29 71  1  0  0  0  0
 30 72  1  0  0  0  0
 30 73  1  0  0  0  0
 33 74  1  0  0  0  0
 35 75  1  0  0  0  0
 36 76  1  0  0  0  0
M  CHG  2  33   1  35   1
M  END
> <SMILES>
COc1cc2c(cc1OCc1ccc(cc1)F)N(CC12CCN(CC1)CC(C)(C)O)c1ccn2ccnc2c1

> <FORMATTED_ID>
H3D-015206

> <MOLFORMULA>
C31H35FN4O3

> <Exact Mass>
530.27

> <XLogP>
6.26

> <TPSA_NOPS>
62.5

> <s_m_source_file>
ligprep_h3d.sdf

> <i_m_source_file_index>
5412

> <i_lp_mmshare_version>
55123

> <i_f3d_flags>
0

> <s_epik_input>
W2NIXTFbY0hdYyhGKVtjSF1bY0hdYzFbQ0gyXU9jKGMoW2NIXTIpT1tDSDNdKVtjSF1jKE4oW0NIMl0zKWMoW2NIXVtjSF00KVtjSF1jKG40NSluW2NIXVtjSF01KWMyQzM2W0NIMl1bQ0gyXU4oW0NIMl1bQ0gyXTYpW0NIMl1DKFtDSDNdKShbQ0gzXSlbT0hd

> <s_epik_cmdline>
J2VwaWtfcHl0aG9uJywgJy1waHQnLCAnMC41JywgJy1waCcsICc3LjUnLCAnLXRuJywgJzgnLCAnLW1hJywgJzUwMCcsICctaW1hZScsICc8aW5maWxlLm1hZT4nLCAnLW9tYWUnLCAnPG91dGZpbGUubWFlPic=

> <r_lp_tautomer_probability>
1

> <r_epik_Ionization_Penalty>
0.421694

> <r_epik_Ionization_Penalty_Charging>
0.0243449

> <r_epik_Ionization_Penalty_Neutral>
0.397349

> <r_epik_State_Penalty>
0.391211

> <r_epik_Charging_Adjusted_Penalty>
0.415556

> <i_epik_Tot_Q>
2

> <i_epik_Tot_abs_Q>
2

> <s_lp_Force_Field>
S-OPLS

> <r_lp_Energy>
73.5231

> <b_lp_Chiralities_Consistent>
1

> <s_lp_Variant>
ligprep_h3d.sdf:5412-1

> <ROCS_ShapeQuery>
_7L13

> <ROCS_TanimotoCombo>
0.721 

> <ROCS_ShapeTanimoto>
0.637 

> <ROCS_ColorTanimoto>
0.083 

> <ROCS_RefTversky>
0.808 

> <ROCS_RefColorTversky>
0.198 

> <ROCS_RefTverskyCombo>
1.007 

> <ROCS_FitTversky>
0.751 

> <ROCS_FitColorTversky>
0.125 

> <ROCS_FitTverskyCombo>
0.876 

> <ROCS_ColorScore>
-1.844

> <ROCS_Overlap>
1348.166

> <ROCS_Rank>
135                 

$$$$
ligprep_h3d.sdf:3003_1330
  -OEChem-08212117123D

 69 74  0     0  0  0  0  0  0999 V2000
  -24.1458   -4.2531  -23.2426 C   0  0  0  0  0  0  0  0  0  0  0  0
  -25.2773   -4.9718  -23.6838 C   0  0  0  0  0  0  0  0  0  0  0  0
  -21.0590   -6.9112  -34.6273 C   0  0  0  0  0  0  0  0  0  0  0  0
  -19.0813   -3.2279  -25.9218 C   0  0  0  0  0  0  0  0  0  0  0  0
  -20.4487   -5.1995  -26.2054 C   0  0  0  0  0  0  0  0  0  0  0  0
  -23.1883   -3.7572  -24.1389 C   0  0  0  0  0  0  0  0  0  0  0  0
  -25.5065   -5.2297  -25.0430 C   0  0  0  0  0  0  0  0  0  0  0  0
  -18.0006   -4.0301  -25.5555 C   0  0  0  0  0  0  0  0  0  0  0  0
  -19.3680   -6.0017  -25.8390 C   0  0  0  0  0  0  0  0  0  0  0  0
  -20.7062   -7.9042  -35.5436 C   0  0  0  0  0  0  0  0  0  0  0  0
  -19.9080   -3.5062  -33.6632 C   0  0  0  0  0  0  0  0  0  0  0  0
  -18.9102   -6.5173  -36.3756 C   0  0  0  0  0  0  0  0  0  0  0  0
  -18.8568   -3.3755  -34.5553 C   0  0  0  0  0  0  0  0  0  0  0  0
  -20.3405   -5.7064  -34.5735 C   0  0  0  0  0  0  0  0  0  0  0  0
  -20.3054   -3.8126  -26.2467 C   0  0  0  0  0  0  0  0  0  0  0  0
  -23.4291   -4.0206  -25.4822 C   0  0  0  0  0  0  0  0  0  0  0  0
  -24.5491   -4.7320  -25.9190 C   0  0  0  0  0  0  0  0  0  0  0  0
  -19.2577   -5.5184  -35.4608 C   0  0  0  0  0  0  0  0  0  0  0  0
  -18.1439   -5.4170  -25.5141 C   0  0  0  0  0  0  0  0  0  0  0  0
  -20.6543   -4.6796  -33.6729 C   0  0  0  0  0  0  0  0  0  0  0  0
  -19.6352   -7.7076  -36.4147 C   0  0  0  0  0  0  0  0  0  0  0  0
  -23.3440   -4.1647  -27.6995 C   0  0  0  0  0  0  0  0  0  0  0  0
  -15.7688   -5.8180  -24.7916 C   0  0  0  0  0  0  0  0  0  0  0  0
  -21.0998   -3.7580  -30.6368 C   0  0  0  0  0  0  0  0  0  0  0  0
  -23.5208   -3.9202  -31.4002 C   0  0  0  0  0  0  0  0  0  0  0  0
  -21.6427   -4.5712  -29.4614 C   0  0  0  0  0  0  0  0  0  0  0  0
  -23.7698   -3.3491  -30.0058 C   0  0  0  0  0  0  0  0  0  0  0  0
  -22.0587   -3.7638  -31.8317 C   0  0  0  0  0  0  0  0  0  0  0  0
  -14.8883   -6.9972  -24.4617 C   0  0  0  0  0  0  0  0  0  0  0  0
  -21.4712   -2.9471  -26.6419 C   0  0  0  0  0  0  0  0  0  0  0  0
  -22.7166   -3.6924  -26.6174 N   0  0  0  0  0  0  0  0  0  0  0  0
  -18.5665   -4.3640  -35.4116 N   0  3  0  0  0  0  0  0  0  0  0  0
  -24.4514   -4.7947  -27.2939 N   0  3  0  0  0  0  0  0  0  0  0  0
  -22.9337   -4.0337  -29.0109 N   0  0  0  0  0  0  0  0  0  0  0  0
  -17.0631   -6.2196  -25.1480 N   0  0  0  0  0  0  0  0  0  0  0  0
  -21.7001   -4.7961  -32.7769 N   0  0  0  0  0  0  0  0  0  0  0  0
  -15.3339   -4.6726  -24.7294 O   0  0  0  0  0  0  0  0  0  0  0  0
  -19.2078   -8.9374  -37.5407 Cl  0  0  0  0  0  0  0  0  0  0  0  0
  -24.0130   -4.0794  -22.1769 H   0  0  0  0  0  0  0  0  0  0  0  0
  -25.9918   -5.3352  -22.9485 H   0  0  0  0  0  0  0  0  0  0  0  0
  -21.8996   -7.1010  -33.9643 H   0  0  0  0  0  0  0  0  0  0  0  0
  -18.9613   -2.1481  -25.9492 H   0  0  0  0  0  0  0  0  0  0  0  0
  -21.3990   -5.6634  -26.4562 H   0  0  0  0  0  0  0  0  0  0  0  0
  -22.3179   -3.2052  -23.8078 H   0  0  0  0  0  0  0  0  0  0  0  0
  -26.3697   -5.7801  -25.3947 H   0  0  0  0  0  0  0  0  0  0  0  0
  -17.0512   -3.5637  -25.3046 H   0  0  0  0  0  0  0  0  0  0  0  0
  -19.4910   -7.0814  -25.8090 H   0  0  0  0  0  0  0  0  0  0  0  0
  -21.2781   -8.8286  -35.5668 H   0  0  0  0  0  0  0  0  0  0  0  0
  -20.1352   -2.6992  -32.9732 H   0  0  0  0  0  0  0  0  0  0  0  0
  -18.0743   -6.3608  -37.0537 H   0  0  0  0  0  0  0  0  0  0  0  0
  -18.2266   -2.4987  -34.6154 H   0  0  0  0  0  0  0  0  0  0  0  0
  -20.9636   -2.7211  -30.3094 H   0  0  0  0  0  0  0  0  0  0  0  0
  -20.1128   -4.1304  -30.9278 H   0  0  0  0  0  0  0  0  0  0  0  0
  -23.8262   -4.9694  -31.4392 H   0  0  0  0  0  0  0  0  0  0  0  0
  -24.1492   -3.3790  -32.1155 H   0  0  0  0  0  0  0  0  0  0  0  0
  -21.7863   -5.6233  -29.7367 H   0  0  0  0  0  0  0  0  0  0  0  0
  -20.9307   -4.5430  -28.6271 H   0  0  0  0  0  0  0  0  0  0  0  0
  -23.5394   -2.2761  -29.9925 H   0  0  0  0  0  0  0  0  0  0  0  0
  -24.8199   -3.4640  -29.7079 H   0  0  0  0  0  0  0  0  0  0  0  0
  -21.9569   -2.7897  -32.3663 H   0  0  0  0  0  0  0  0  0  0  0  0
  -14.3824   -7.3459  -25.3664 H   0  0  0  0  0  0  0  0  0  0  0  0
  -15.4966   -7.8122  -24.0593 H   0  0  0  0  0  0  0  0  0  0  0  0
  -14.1439   -6.7094  -23.7135 H   0  0  0  0  0  0  0  0  0  0  0  0
  -21.5725   -2.0874  -25.9684 H   0  0  0  0  0  0  0  0  0  0  0  0
  -21.3368   -2.5377  -27.6505 H   0  0  0  0  0  0  0  0  0  0  0  0
  -17.7842   -4.2281  -36.0525 H   0  0  0  0  0  0  0  0  0  0  0  0
  -25.1208   -5.2517  -27.9072 H   0  0  0  0  0  0  0  0  0  0  0  0
  -17.2310   -7.2323  -25.1355 H   0  0  0  0  0  0  0  0  0  0  0  0
  -22.2471   -5.6461  -32.7757 H   0  0  0  0  0  0  0  0  0  0  0  0
  1  2  2  0  0  0  0
  1  6  1  0  0  0  0
  2  7  1  0  0  0  0
  3 10  1  0  0  0  0
  3 14  2  0  0  0  0
  4  8  1  0  0  0  0
  4 15  2  0  0  0  0
  5  9  2  0  0  0  0
  5 15  1  0  0  0  0
  6 16  2  0  0  0  0
  7 17  2  0  0  0  0
  8 19  2  0  0  0  0
  9 19  1  0  0  0  0
 10 21  2  0  0  0  0
 11 13  1  0  0  0  0
 11 20  2  0  0  0  0
 12 18  2  0  0  0  0
 12 21  1  0  0  0  0
 13 32  2  0  0  0  0
 14 18  1  0  0  0  0
 14 20  1  0  0  0  0
 15 30  1  0  0  0  0
 16 17  1  0  0  0  0
 16 31  1  0  0  0  0
 17 33  1  0  0  0  0
 18 32  1  0  0  0  0
 19 35  1  0  0  0  0
 20 36  1  0  0  0  0
 21 38  1  0  0  0  0
 22 31  1  0  0  0  0
 22 33  2  0  0  0  0
 22 34  1  0  0  0  0
 23 29  1  0  0  0  0
 23 35  1  0  0  0  0
 23 37  2  0  0  0  0
 24 26  1  0  0  0  0
 24 28  1  0  0  0  0
 25 27  1  0  0  0  0
 25 28  1  0  0  0  0
 26 34  1  0  0  0  0
 27 34  1  0  0  0  0
 28 36  1  0  0  0  0
 30 31  1  0  0  0  0
  1 39  1  0  0  0  0
  2 40  1  0  0  0  0
  3 41  1  0  0  0  0
  4 42  1  0  0  0  0
  5 43  1  0  0  0  0
  6 44  1  0  0  0  0
  7 45  1  0  0  0  0
  8 46  1  0  0  0  0
  9 47  1  0  0  0  0
 10 48  1  0  0  0  0
 11 49  1  0  0  0  0
 12 50  1  0  0  0  0
 13 51  1  0  0  0  0
 24 52  1  0  0  0  0
 24 53  1  0  0  0  0
 25 54  1  0  0  0  0
 25 55  1  0  0  0  0
 26 56  1  0  0  0  0
 26 57  1  0  0  0  0
 27 58  1  0  0  0  0
 27 59  1  0  0  0  0
 28 60  1  0  0  0  0
 29 61  1  0  0  0  0
 29 62  1  0  0  0  0
 29 63  1  0  0  0  0
 30 64  1  0  0  0  0
 30 65  1  0  0  0  0
 32 66  1  0  0  0  0
 33 67  1  0  0  0  0
 35 68  1  0  0  0  0
 36 69  1  0  0  0  0
M  CHG  2  32   1  33   1
M  END
> <SMILES>
CC(=O)Nc1ccc(cc1)Cn1c(nc2ccccc12)N1CCC(CC1)Nc1ccnc2cc(ccc12)Cl

> <FORMATTED_ID>
H3D-014804

> <MOLFORMULA>
C30H29ClN6O

> <Exact Mass>
524.21

> <XLogP>
6.96

> <TPSA_NOPS>
75.1

> <s_m_source_file>
ligprep_h3d.sdf

> <i_m_source_file_index>
3003

> <i_lp_mmshare_version>
55123

> <i_f3d_flags>
0

> <s_epik_input>
W0NIM11DKD1PKVtOSF1jMVtjSF1bY0hdYyhbY0hdW2NIXTEpW0NIMl1uKGMoYzIzKVtjSF1bY0hdW2NIXVtjSF0zKWMobjIpTjRbQ0gyXVtDSDJdW0NIXShbQ0gyXVtDSDJdNClbTkhdYyhbY0hdW2NIXW41KWMoYzU2KVtjSF1bY0hdYyhDbClbY0hdNg==

> <s_epik_cmdline>
J2VwaWtfcHl0aG9uJywgJy1waHQnLCAnMC41JywgJy1waCcsICc3LjUnLCAnLXRuJywgJzgnLCAnLW1hJywgJzUwMCcsICctaW1hZScsICc8aW5maWxlLm1hZT4nLCAnLW9tYWUnLCAnPG91dGZpbGUubWFlPic=

> <r_epik_Ionization_Penalty>
0.237504

> <r_epik_Ionization_Penalty_Charging>
0.237496

> <r_epik_Ionization_Penalty_Neutral>
8.30133e-06

> <r_epik_State_Penalty>
0.218872

> <r_epik_Charging_Adjusted_Penalty>
0.456367

> <i_epik_Tot_Q>
2

> <i_epik_Tot_abs_Q>
2

> <s_lp_Force_Field>
S-OPLS

> <r_lp_Energy>
65.8903

> <b_lp_Chiralities_Consistent>
1

> <s_lp_Variant>
ligprep_h3d.sdf:3003-1

> <ROCS_ShapeQuery>
_7L13

> <ROCS_TanimotoCombo>
0.710 

> <ROCS_ShapeTanimoto>
0.648 

> <ROCS_ColorTanimoto>
0.062 

> <ROCS_RefTversky>
0.808 

> <ROCS_RefColorTversky>
0.139 

> <ROCS_RefTverskyCombo>
0.948 

> <ROCS_FitTversky>
0.766 

> <ROCS_FitColorTversky>
0.100 

> <ROCS_FitTverskyCombo>
0.866 

> <ROCS_ColorScore>
-1.283

> <ROCS_Overlap>
1346.452

> <ROCS_Rank>
136                 

$$$$
ligprep_h3d.sdf:5317_892
  -OEChem-08212117123D

 71 77  0     0  0  0  0  0  0999 V2000
  -19.4162   -6.2014  -35.9110 C   0  0  0  0  0  0  0  0  0  0  0  0
  -19.9755   -7.0239  -34.9331 C   0  0  0  0  0  0  0  0  0  0  0  0
  -18.8658   -4.9700  -35.5553 C   0  0  0  0  0  0  0  0  0  0  0  0
  -19.9845   -6.6151  -33.5996 C   0  0  0  0  0  0  0  0  0  0  0  0
  -18.8748   -4.5612  -34.2218 C   0  0  0  0  0  0  0  0  0  0  0  0
  -23.0135   -4.1882  -28.7470 C   0  0  0  0  0  0  0  0  0  0  0  0
  -20.2380   -4.3978  -29.2151 C   0  0  0  0  0  0  0  0  0  0  0  0
  -14.6006   -4.9476  -26.1699 C   0  0  0  0  0  0  0  0  0  0  0  0
  -14.5120   -6.1638  -25.5450 C   0  0  0  0  0  0  0  0  0  0  0  0
  -22.1256   -4.3305  -27.6877 C   0  0  0  0  0  0  0  0  0  0  0  0
  -19.4341   -5.3837  -33.2439 C   0  0  0  0  0  0  0  0  0  0  0  0
  -20.7541   -4.4335  -27.9278 C   0  0  0  0  0  0  0  0  0  0  0  0
  -22.5082   -4.1507  -30.0481 C   0  0  0  0  0  0  0  0  0  0  0  0
  -21.1297   -4.2548  -30.2800 C   0  0  0  0  0  0  0  0  0  0  0  0
  -16.6527   -5.7442  -25.8998 C   0  0  0  0  0  0  0  0  0  0  0  0
  -18.1376   -5.7610  -25.9885 C   0  0  0  0  0  0  0  0  0  0  0  0
  -17.8713   -3.6024  -27.0687 C   0  0  0  0  0  0  0  0  0  0  0  0
  -16.5280   -3.6127  -26.9758 C   0  0  0  0  0  0  0  0  0  0  0  0
  -18.7270   -4.6933  -26.5696 C   0  0  0  0  0  0  0  0  0  0  0  0
  -23.3276   -5.6126  -25.8781 C   0  0  0  0  0  0  0  0  0  0  0  0
  -23.1166   -3.0998  -25.7210 C   0  0  0  0  0  0  0  0  0  0  0  0
  -21.0130   -4.5540  -25.6031 C   0  0  0  0  0  0  0  0  0  0  0  0
  -23.7392   -5.6606  -24.4110 C   0  0  0  0  0  0  0  0  0  0  0  0
  -23.5295   -3.1658  -24.2551 C   0  0  0  0  0  0  0  0  0  0  0  0
  -25.8482   -5.6164  -22.3558 C   0  0  0  0  0  0  0  0  0  0  0  0
  -26.2314   -3.5901  -22.4420 C   0  0  0  0  0  0  0  0  0  0  0  0
  -24.9565   -4.4084  -22.6331 C   0  0  0  0  0  0  0  0  0  0  0  0
  -22.4408   -4.3963  -26.2066 C   0  0  0  0  0  0  0  0  0  0  0  0
  -23.6733   -2.6812  -31.5106 C   0  0  0  0  0  0  0  0  0  0  0  0
  -19.4437   -4.9431  -31.8095 C   0  0  0  0  0  0  0  0  0  0  0  0
  -15.9421   -4.7070  -26.3809 N   0  0  0  0  0  0  0  0  0  0  0  0
  -15.7957   -6.6332  -25.3911 N   0  3  0  0  0  0  0  0  0  0  0  0
  -20.0619   -4.5685  -26.7198 N   0  0  0  0  0  0  0  0  0  0  0  0
  -24.4177   -4.3659  -24.0369 N   0  3  0  0  0  0  0  0  0  0  0  0
  -26.9734   -4.7643  -22.0333 O   0  0  0  0  0  0  0  0  0  0  0  0
  -23.3721   -4.0109  -31.0936 O   0  0  0  0  0  0  0  0  0  0  0  0
  -20.6436   -4.2172  -31.5537 O   0  0  0  0  0  0  0  0  0  0  0  0
  -19.4081   -6.5205  -36.9491 H   0  0  0  0  0  0  0  0  0  0  0  0
  -20.4031   -7.9832  -35.2097 H   0  0  0  0  0  0  0  0  0  0  0  0
  -18.4293   -4.3299  -36.3162 H   0  0  0  0  0  0  0  0  0  0  0  0
  -20.4226   -7.2624  -32.8444 H   0  0  0  0  0  0  0  0  0  0  0  0
  -18.4439   -3.6001  -33.9539 H   0  0  0  0  0  0  0  0  0  0  0  0
  -24.0815   -4.1079  -28.5698 H   0  0  0  0  0  0  0  0  0  0  0  0
  -19.1737   -4.4772  -29.4088 H   0  0  0  0  0  0  0  0  0  0  0  0
  -13.8877   -4.2141  -26.4961 H   0  0  0  0  0  0  0  0  0  0  0  0
  -13.7135   -6.7785  -25.1793 H   0  0  0  0  0  0  0  0  0  0  0  0
  -18.6891   -6.6057  -25.5948 H   0  0  0  0  0  0  0  0  0  0  0  0
  -18.3621   -2.7517  -27.5333 H   0  0  0  0  0  0  0  0  0  0  0  0
  -15.8908   -2.8169  -27.3389 H   0  0  0  0  0  0  0  0  0  0  0  0
  -22.8130   -6.5466  -26.1396 H   0  0  0  0  0  0  0  0  0  0  0  0
  -24.2380   -5.5915  -26.4925 H   0  0  0  0  0  0  0  0  0  0  0  0
  -24.0116   -2.8932  -26.3237 H   0  0  0  0  0  0  0  0  0  0  0  0
  -22.4511   -2.2395  -25.8706 H   0  0  0  0  0  0  0  0  0  0  0  0
  -20.7634   -3.7275  -24.9265 H   0  0  0  0  0  0  0  0  0  0  0  0
  -20.9133   -5.4841  -25.0304 H   0  0  0  0  0  0  0  0  0  0  0  0
  -24.4597   -6.4681  -24.2428 H   0  0  0  0  0  0  0  0  0  0  0  0
  -22.8782   -5.7988  -23.7479 H   0  0  0  0  0  0  0  0  0  0  0  0
  -22.6642   -3.2560  -23.5892 H   0  0  0  0  0  0  0  0  0  0  0  0
  -24.1073   -2.2766  -23.9805 H   0  0  0  0  0  0  0  0  0  0  0  0
  -26.0770   -6.2666  -23.2061 H   0  0  0  0  0  0  0  0  0  0  0  0
  -25.5481   -6.2266  -21.4989 H   0  0  0  0  0  0  0  0  0  0  0  0
  -26.1876   -2.8447  -21.6425 H   0  0  0  0  0  0  0  0  0  0  0  0
  -26.6684   -3.1402  -23.3389 H   0  0  0  0  0  0  0  0  0  0  0  0
  -24.1844   -4.2303  -21.8789 H   0  0  0  0  0  0  0  0  0  0  0  0
  -24.3720   -2.7113  -32.3502 H   0  0  0  0  0  0  0  0  0  0  0  0
  -22.7519   -2.1740  -31.8074 H   0  0  0  0  0  0  0  0  0  0  0  0
  -24.1313   -2.1426  -30.6776 H   0  0  0  0  0  0  0  0  0  0  0  0
  -19.3967   -5.8047  -31.1347 H   0  0  0  0  0  0  0  0  0  0  0  0
  -18.5827   -4.3008  -31.5955 H   0  0  0  0  0  0  0  0  0  0  0  0
  -16.0515   -7.5165  -24.9583 H   0  0  0  0  0  0  0  0  0  0  0  0
  -25.2505   -4.2541  -24.7030 H   0  0  0  0  0  0  0  0  0  0  0  0
  1  2  2  0  0  0  0
  1  3  1  0  0  0  0
  2  4  1  0  0  0  0
  3  5  2  0  0  0  0
  4 11  2  0  0  0  0
  5 11  1  0  0  0  0
  6 10  1  0  0  0  0
  6 13  2  0  0  0  0
  7 12  1  0  0  0  0
  7 14  2  0  0  0  0
  8  9  2  0  0  0  0
  8 31  1  0  0  0  0
  9 32  1  0  0  0  0
 10 12  2  0  0  0  0
 10 28  1  0  0  0  0
 11 30  1  0  0  0  0
 12 33  1  0  0  0  0
 13 14  1  0  0  0  0
 13 36  1  0  0  0  0
 14 37  1  0  0  0  0
 15 16  1  0  0  0  0
 15 31  1  0  0  0  0
 15 32  2  0  0  0  0
 16 19  2  0  0  0  0
 17 18  2  0  0  0  0
 17 19  1  0  0  0  0
 18 31  1  0  0  0  0
 19 33  1  0  0  0  0
 20 23  1  0  0  0  0
 20 28  1  0  0  0  0
 21 24  1  0  0  0  0
 21 28  1  0  0  0  0
 22 28  1  0  0  0  0
 22 33  1  0  0  0  0
 23 34  1  0  0  0  0
 24 34  1  0  0  0  0
 25 27  1  0  0  0  0
 25 35  1  0  0  0  0
 26 27  1  0  0  0  0
 26 35  1  0  0  0  0
 27 34  1  0  0  0  0
 29 36  1  0  0  0  0
 30 37  1  0  0  0  0
  1 38  1  0  0  0  0
  2 39  1  0  0  0  0
  3 40  1  0  0  0  0
  4 41  1  0  0  0  0
  5 42  1  0  0  0  0
  6 43  1  0  0  0  0
  7 44  1  0  0  0  0
  8 45  1  0  0  0  0
  9 46  1  0  0  0  0
 16 47  1  0  0  0  0
 17 48  1  0  0  0  0
 18 49  1  0  0  0  0
 20 50  1  0  0  0  0
 20 51  1  0  0  0  0
 21 52  1  0  0  0  0
 21 53  1  0  0  0  0
 22 54  1  0  0  0  0
 22 55  1  0  0  0  0
 23 56  1  0  0  0  0
 23 57  1  0  0  0  0
 24 58  1  0  0  0  0
 24 59  1  0  0  0  0
 25 60  1  0  0  0  0
 25 61  1  0  0  0  0
 26 62  1  0  0  0  0
 26 63  1  0  0  0  0
 27 64  1  0  0  0  0
 29 65  1  0  0  0  0
 29 66  1  0  0  0  0
 29 67  1  0  0  0  0
 30 68  1  0  0  0  0
 30 69  1  0  0  0  0
 32 70  1  0  0  0  0
 34 71  1  0  0  0  0
M  CHG  2  32   1  34   1
M  END
> <SMILES>
COc1cc2c(cc1OCc1ccccc1)N(CC12CCN(CC1)C1COC1)c1ccn2ccnc2c1

> <FORMATTED_ID>
H3D-014440

> <MOLFORMULA>
C30H32N4O3

> <Exact Mass>
496.25

> <XLogP>
5.63

> <TPSA_NOPS>
51.5

> <s_m_source_file>
ligprep_h3d.sdf

> <i_m_source_file_index>
5317

> <i_lp_mmshare_version>
55123

> <i_f3d_flags>
0

> <s_epik_input>
W2NIXTFbY0hdW2NIXVtjSF1bY0hdYzFbQ0gyXU9jKGMoW2NIXTIpT1tDSDNdKVtjSF1jKE4oW0NIMl0zKWMoW2NIXVtjSF00KVtjSF1jKG40NSluW2NIXVtjSF01KWMyQzM2W0NIMl1bQ0gyXU4oW0NIMl1bQ0gyXTYpW0NIXTdbQ0gyXU9bQ0gyXTc=

> <s_epik_cmdline>
J2VwaWtfcHl0aG9uJywgJy1waHQnLCAnMC41JywgJy1waCcsICc3LjUnLCAnLXRuJywgJzgnLCAnLW1hJywgJzUwMCcsICctaW1hZScsICc8aW5maWxlLm1hZT4nLCAnLW9tYWUnLCAnPG91dGZpbGUubWFlPic=

> <r_lp_tautomer_probability>
1

> <r_epik_Ionization_Penalty>
0.718289

> <r_epik_Ionization_Penalty_Charging>
0.320847

> <r_epik_Ionization_Penalty_Neutral>
0.397442

> <r_epik_State_Penalty>
0.689194

> <r_epik_Charging_Adjusted_Penalty>
1.01004

> <i_epik_Tot_Q>
2

> <i_epik_Tot_abs_Q>
2

> <s_lp_Force_Field>
S-OPLS

> <r_lp_Energy>
78.1357

> <b_lp_Chiralities_Consistent>
1

> <s_lp_Variant>
ligprep_h3d.sdf:5317-1

> <ROCS_ShapeQuery>
_7L13

> <ROCS_TanimotoCombo>
0.759 

> <ROCS_ShapeTanimoto>
0.657 

> <ROCS_ColorTanimoto>
0.102 

> <ROCS_RefTversky>
0.808 

> <ROCS_RefColorTversky>
0.231 

> <ROCS_RefTverskyCombo>
1.039 

> <ROCS_FitTversky>
0.779 

> <ROCS_FitColorTversky>
0.155 

> <ROCS_FitTverskyCombo>
0.933 

> <ROCS_ColorScore>
-2.133

> <ROCS_Overlap>
1345.042

> <ROCS_Rank>
137                 

$$$$
ligprep_h3d.sdf:5320_1327
  -OEChem-08212117123D

 75 81  0     0  0  0  0  0  0999 V2000
  -19.4798   -6.6001  -36.1716 C   0  0  0  0  0  0  0  0  0  0  0  0
  -20.5245   -7.0660  -35.3733 C   0  0  0  0  0  0  0  0  0  0  0  0
  -18.4140   -5.9108  -35.5932 C   0  0  0  0  0  0  0  0  0  0  0  0
  -20.5035   -6.8424  -33.9967 C   0  0  0  0  0  0  0  0  0  0  0  0
  -18.3930   -5.6872  -34.2165 C   0  0  0  0  0  0  0  0  0  0  0  0
  -27.4611   -4.5082  -24.2566 C   0  0  0  0  0  0  0  0  0  0  0  0
  -22.6748   -4.1783  -29.1222 C   0  0  0  0  0  0  0  0  0  0  0  0
  -19.9026   -4.6845  -29.2821 C   0  0  0  0  0  0  0  0  0  0  0  0
  -14.9387   -6.7594  -24.8589 C   0  0  0  0  0  0  0  0  0  0  0  0
  -28.5296   -5.1601  -23.6911 C   0  0  0  0  0  0  0  0  0  0  0  0
  -14.7490   -5.5989  -25.5715 C   0  0  0  0  0  0  0  0  0  0  0  0
  -21.9110   -4.3081  -27.9687 C   0  0  0  0  0  0  0  0  0  0  0  0
  -19.4377   -6.1530  -33.4182 C   0  0  0  0  0  0  0  0  0  0  0  0
  -20.5403   -4.5585  -28.0565 C   0  0  0  0  0  0  0  0  0  0  0  0
  -22.0462   -4.3028  -30.3628 C   0  0  0  0  0  0  0  0  0  0  0  0
  -20.6695   -4.5542  -30.4417 C   0  0  0  0  0  0  0  0  0  0  0  0
  -26.5525   -4.3354  -23.1954 C   0  0  0  0  0  0  0  0  0  0  0  0
  -16.8947   -6.1516  -25.4697 C   0  0  0  0  0  0  0  0  0  0  0  0
  -18.2772   -5.9517  -25.7555 C   0  0  0  0  0  0  0  0  0  0  0  0
  -17.6974   -3.9226  -26.9744 C   0  0  0  0  0  0  0  0  0  0  0  0
  -16.3937   -4.1031  -26.7092 C   0  0  0  0  0  0  0  0  0  0  0  0
  -18.6889   -4.8840  -26.4793 C   0  0  0  0  0  0  0  0  0  0  0  0
  -23.4037   -5.3086  -26.1983 C   0  0  0  0  0  0  0  0  0  0  0  0
  -22.9560   -2.8221  -26.2182 C   0  0  0  0  0  0  0  0  0  0  0  0
  -21.0309   -4.4488  -25.7689 C   0  0  0  0  0  0  0  0  0  0  0  0
  -23.9563   -5.1886  -24.7826 C   0  0  0  0  0  0  0  0  0  0  0  0
  -23.5116   -2.7200  -24.8023 C   0  0  0  0  0  0  0  0  0  0  0  0
  -22.3713   -4.2134  -26.5277 C   0  0  0  0  0  0  0  0  0  0  0  0
  -29.0245   -5.9702  -21.3722 C   0  0  0  0  0  0  0  0  0  0  0  0
  -22.9118   -2.8657  -32.0485 C   0  0  0  0  0  0  0  0  0  0  0  0
  -19.4145   -5.9120  -31.9374 C   0  0  0  0  0  0  0  0  0  0  0  0
  -25.2052   -3.6769  -23.2444 C   0  0  0  0  0  0  0  0  0  0  0  0
  -16.2671   -7.0963  -24.7991 N   0  0  0  0  0  0  0  0  0  0  0  0
  -27.0043   -4.8369  -22.0428 N   0  0  0  0  0  0  0  0  0  0  0  0
  -16.0032   -5.2080  -25.9641 N   0  0  0  0  0  0  0  0  0  0  0  0
  -28.2086   -5.3312  -22.3766 N   0  0  0  0  0  0  0  0  0  0  0  0
  -19.9839   -4.6498  -26.7764 N   0  0  0  0  0  0  0  0  0  0  0  0
  -24.5332   -3.8086  -24.5837 N   0  3  0  0  0  0  0  0  0  0  0  0
  -22.7876   -4.1758  -31.4999 O   0  0  0  0  0  0  0  0  0  0  0  0
  -20.0630   -4.6738  -31.6573 O   0  0  0  0  0  0  0  0  0  0  0  0
  -19.4957   -6.7754  -37.2433 H   0  0  0  0  0  0  0  0  0  0  0  0
  -21.3539   -7.6037  -35.8234 H   0  0  0  0  0  0  0  0  0  0  0  0
  -17.6000   -5.5489  -36.2142 H   0  0  0  0  0  0  0  0  0  0  0  0
  -21.3219   -7.2089  -33.3825 H   0  0  0  0  0  0  0  0  0  0  0  0
  -17.5585   -5.1491  -33.7746 H   0  0  0  0  0  0  0  0  0  0  0  0
  -27.3594   -4.2038  -25.2881 H   0  0  0  0  0  0  0  0  0  0  0  0
  -23.7412   -3.9835  -29.0635 H   0  0  0  0  0  0  0  0  0  0  0  0
  -18.8381   -4.8782  -29.3573 H   0  0  0  0  0  0  0  0  0  0  0  0
  -14.1838   -7.3698  -24.3852 H   0  0  0  0  0  0  0  0  0  0  0  0
  -29.4670   -5.5067  -24.1037 H   0  0  0  0  0  0  0  0  0  0  0  0
  -13.8611   -5.0358  -25.8243 H   0  0  0  0  0  0  0  0  0  0  0  0
  -18.9903   -6.6781  -25.3781 H   0  0  0  0  0  0  0  0  0  0  0  0
  -18.0301   -3.0681  -27.5540 H   0  0  0  0  0  0  0  0  0  0  0  0
  -15.6247   -3.4216  -27.0520 H   0  0  0  0  0  0  0  0  0  0  0  0
  -22.9629   -6.3054  -26.3302 H   0  0  0  0  0  0  0  0  0  0  0  0
  -24.2441   -5.2584  -26.9037 H   0  0  0  0  0  0  0  0  0  0  0  0
  -23.7633   -2.5868  -26.9251 H   0  0  0  0  0  0  0  0  0  0  0  0
  -22.1957   -2.0437  -26.3644 H   0  0  0  0  0  0  0  0  0  0  0  0
  -20.7654   -3.5926  -25.1368 H   0  0  0  0  0  0  0  0  0  0  0  0
  -21.0811   -5.3300  -25.1178 H   0  0  0  0  0  0  0  0  0  0  0  0
  -24.7676   -5.9077  -24.6281 H   0  0  0  0  0  0  0  0  0  0  0  0
  -23.1874   -5.3419  -24.0183 H   0  0  0  0  0  0  0  0  0  0  0  0
  -22.7352   -2.8329  -24.0385 H   0  0  0  0  0  0  0  0  0  0  0  0
  -24.0205   -1.7607  -24.6610 H   0  0  0  0  0  0  0  0  0  0  0  0
  -28.7768   -7.0349  -21.3636 H   0  0  0  0  0  0  0  0  0  0  0  0
  -28.8184   -5.5218  -20.3963 H   0  0  0  0  0  0  0  0  0  0  0  0
  -30.0802   -5.8240  -21.6175 H   0  0  0  0  0  0  0  0  0  0  0  0
  -23.5264   -2.9046  -32.9511 H   0  0  0  0  0  0  0  0  0  0  0  0
  -21.9197   -2.4741  -32.2869 H   0  0  0  0  0  0  0  0  0  0  0  0
  -23.3906   -2.2159  -31.3121 H   0  0  0  0  0  0  0  0  0  0  0  0
  -19.9317   -6.7152  -31.4016 H   0  0  0  0  0  0  0  0  0  0  0  0
  -18.3844   -5.8697  -31.5675 H   0  0  0  0  0  0  0  0  0  0  0  0
  -25.2808   -2.6046  -23.0346 H   0  0  0  0  0  0  0  0  0  0  0  0
  -24.5242   -4.1142  -22.5064 H   0  0  0  0  0  0  0  0  0  0  0  0
  -25.2703   -3.6815  -25.2910 H   0  0  0  0  0  0  0  0  0  0  0  0
  1  2  2  0  0  0  0
  1  3  1  0  0  0  0
  2  4  1  0  0  0  0
  3  5  2  0  0  0  0
  4 13  2  0  0  0  0
  5 13  1  0  0  0  0
  6 10  2  0  0  0  0
  6 17  1  0  0  0  0
  7 12  1  0  0  0  0
  7 15  2  0  0  0  0
  8 14  1  0  0  0  0
  8 16  2  0  0  0  0
  9 11  2  0  0  0  0
  9 33  1  0  0  0  0
 10 36  1  0  0  0  0
 11 35  1  0  0  0  0
 12 14  2  0  0  0  0
 12 28  1  0  0  0  0
 13 31  1  0  0  0  0
 14 37  1  0  0  0  0
 15 16  1  0  0  0  0
 15 39  1  0  0  0  0
 16 40  1  0  0  0  0
 17 32  1  0  0  0  0
 17 34  2  0  0  0  0
 18 19  1  0  0  0  0
 18 33  2  0  0  0  0
 18 35  1  0  0  0  0
 19 22  2  0  0  0  0
 20 21  2  0  0  0  0
 20 22  1  0  0  0  0
 21 35  1  0  0  0  0
 22 37  1  0  0  0  0
 23 26  1  0  0  0  0
 23 28  1  0  0  0  0
 24 27  1  0  0  0  0
 24 28  1  0  0  0  0
 25 28  1  0  0  0  0
 25 37  1  0  0  0  0
 26 38  1  0  0  0  0
 27 38  1  0  0  0  0
 29 36  1  0  0  0  0
 30 39  1  0  0  0  0
 31 40  1  0  0  0  0
 32 38  1  0  0  0  0
 34 36  1  0  0  0  0
  1 41  1  0  0  0  0
  2 42  1  0  0  0  0
  3 43  1  0  0  0  0
  4 44  1  0  0  0  0
  5 45  1  0  0  0  0
  6 46  1  0  0  0  0
  7 47  1  0  0  0  0
  8 48  1  0  0  0  0
  9 49  1  0  0  0  0
 10 50  1  0  0  0  0
 11 51  1  0  0  0  0
 19 52  1  0  0  0  0
 20 53  1  0  0  0  0
 21 54  1  0  0  0  0
 23 55  1  0  0  0  0
 23 56  1  0  0  0  0
 24 57  1  0  0  0  0
 24 58  1  0  0  0  0
 25 59  1  0  0  0  0
 25 60  1  0  0  0  0
 26 61  1  0  0  0  0
 26 62  1  0  0  0  0
 27 63  1  0  0  0  0
 27 64  1  0  0  0  0
 29 65  1  0  0  0  0
 29 66  1  0  0  0  0
 29 67  1  0  0  0  0
 30 68  1  0  0  0  0
 30 69  1  0  0  0  0
 30 70  1  0  0  0  0
 31 71  1  0  0  0  0
 31 72  1  0  0  0  0
 32 73  1  0  0  0  0
 32 74  1  0  0  0  0
 38 75  1  0  0  0  0
M  CHG  1  38   1
M  END
> <SMILES>
COc1cc2c(cc1OCc1ccccc1)N(CC12CCN(CC1)Cc1ccn(n1)C)c1ccn2ccnc2c1

> <FORMATTED_ID>
H3D-014836

> <MOLFORMULA>
C32H34N6O2

> <Exact Mass>
534.27

> <XLogP>
6.38

> <TPSA_NOPS>
60.1

> <s_m_source_file>
ligprep_h3d.sdf

> <i_m_source_file_index>
5320

> <i_lp_mmshare_version>
55123

> <i_f3d_flags>
0

> <s_epik_input>
W2NIXTFbY0hdW2NIXVtjSF1bY0hdYzFbQ0gyXU9jKGMoW2NIXTIpT1tDSDNdKVtjSF1jKE4oW0NIMl0zKWMoW2NIXVtjSF00KVtjSF1jKG40NSluW2NIXVtjSF01KWMyQzM2W0NIMl1bQ0gyXU4oW0NIMl1bQ0gyXTYpW0NIMl1jN1tjSF1bY0hdbihuNylbQ0gzXQ==

> <s_epik_cmdline>
J2VwaWtfcHl0aG9uJywgJy1waHQnLCAnMC41JywgJy1waCcsICc3LjUnLCAnLXRuJywgJzgnLCAnLW1hJywgJzUwMCcsICctaW1hZScsICc8aW5maWxlLm1hZT4nLCAnLW9tYWUnLCAnPG91dGZpbGUubWFlPic=

> <r_lp_tautomer_probability>
1

> <r_epik_Ionization_Penalty>
0.522212

> <r_epik_Ionization_Penalty_Charging>
0.522212

> <r_epik_Ionization_Penalty_Neutral>
4.41205e-07

> <r_epik_State_Penalty>
0.541012

> <r_epik_Charging_Adjusted_Penalty>
1.06322

> <i_epik_Tot_Q>
1

> <i_epik_Tot_abs_Q>
1

> <s_lp_Force_Field>
S-OPLS

> <r_lp_Energy>
69.1848

> <b_lp_Chiralities_Consistent>
1

> <s_lp_Variant>
ligprep_h3d.sdf:5320-2

> <ROCS_ShapeQuery>
_7L13

> <ROCS_TanimotoCombo>
0.711 

> <ROCS_ShapeTanimoto>
0.618 

> <ROCS_ColorTanimoto>
0.093 

> <ROCS_RefTversky>
0.808 

> <ROCS_RefColorTversky>
0.205 

> <ROCS_RefTverskyCombo>
1.013 

> <ROCS_FitTversky>
0.724 

> <ROCS_FitColorTversky>
0.147 

> <ROCS_FitTverskyCombo>
0.871 

> <ROCS_ColorScore>
-1.883

> <ROCS_Overlap>
1350.610

> <ROCS_Rank>
138                 

$$$$
ligprep_h3d.sdf:897_1928
  -OEChem-08212117123D

 60 65  0     1  0  0  0  0  0999 V2000
  -20.9265   -4.9897  -29.5586 C   0  0  0  0  0  0  0  0  0  0  0  0
  -21.7435   -4.2411  -30.4080 C   0  0  0  0  0  0  0  0  0  0  0  0
  -21.0487   -4.8074  -28.1594 C   0  0  0  0  0  0  0  0  0  0  0  0
  -21.9956   -3.9255  -27.5875 C   0  0  0  0  0  0  0  0  0  0  0  0
  -22.6393   -3.3584  -29.8460 C   0  0  0  0  0  0  0  0  0  0  0  0
  -22.7966   -3.1661  -28.4732 C   0  0  0  0  0  0  0  0  0  0  0  0
  -21.9491   -4.0920  -31.7921 C   0  0  0  0  0  0  0  0  0  0  0  0
  -19.8036   -7.1946  -35.3935 C   0  0  0  0  0  0  0  0  0  0  0  0
  -18.9370   -3.7044  -26.2069 C   0  0  0  0  0  0  0  0  0  0  0  0
  -19.1558   -6.0283  -25.1124 C   0  0  0  0  0  0  0  0  0  0  0  0
  -16.9414   -5.1230  -25.7869 C   0  0  0  0  0  0  0  0  0  0  0  0
  -20.1377   -5.6158  -27.2746 C   0  0  0  0  0  0  0  0  0  0  0  0
  -19.7657   -8.0800  -34.1714 C   0  0  0  0  0  0  0  0  0  0  0  0
  -19.9565   -7.0923  -33.0245 C   0  0  0  0  0  0  0  0  0  0  0  0
  -23.1133   -2.9114  -25.6113 C   0  0  0  0  0  0  0  0  0  0  0  0
  -21.1915   -4.5076  -25.2640 C   0  0  2  0  0  0  0  0  0  0  0  0
  -19.3253   -5.8096  -33.5490 C   0  0  2  0  0  0  0  0  0  0  0  0
  -23.4638   -3.2968  -24.1714 C   0  0  1  0  0  0  0  0  0  0  0  0
  -21.0712   -3.6129  -23.9960 C   0  0  2  0  0  0  0  0  0  0  0  0
  -19.8401   -4.9165  -25.9248 C   0  0  0  0  0  0  0  0  0  0  0  0
  -24.3904   -4.5089  -24.0958 C   0  0  0  0  0  0  0  0  0  0  0  0
  -20.0907   -4.0870  -22.9300 C   0  0  0  0  0  0  0  0  0  0  0  0
  -19.9113   -4.5560  -32.9270 C   0  0  0  0  0  0  0  0  0  0  0  0
  -22.8945   -3.1889  -32.0697 N   0  0  0  0  0  0  0  0  0  0  0  0
  -17.5785   -3.9768  -26.2401 N   0  0  0  0  0  0  0  0  0  0  0  0
  -17.7746   -6.0761  -25.2187 N   0  0  0  0  0  0  0  0  0  0  0  0
  -19.5701   -5.8913  -34.9666 N   0  0  0  0  0  0  0  0  0  0  0  0
  -22.1112   -3.8090  -26.2002 N   0  0  3  0  0  0  0  0  0  0  0  0
  -19.9681   -7.5793  -36.5408 O   0  0  0  0  0  0  0  0  0  0  0  0
  -19.3736   -2.5797  -26.4516 O   0  0  0  0  0  0  0  0  0  0  0  0
  -19.7851   -6.8776  -24.4799 O   0  0  0  0  0  0  0  0  0  0  0  0
  -15.7192   -5.2666  -25.8475 O   0  0  0  0  0  0  0  0  0  0  0  0
  -23.3285   -2.7241  -30.8337 O   0  0  0  0  0  0  0  0  0  0  0  0
  -22.3382   -3.5333  -23.3313 O   0  0  0  0  0  0  0  0  0  0  0  0
  -21.3341   -4.7145  -32.8065 O   0  0  0  0  0  0  0  0  0  0  0  0
  -23.6282   -2.1984  -28.0697 F   0  0  0  0  0  0  0  0  0  0  0  0
  -20.2036   -5.6910  -29.9656 H   0  0  0  0  0  0  0  0  0  0  0  0
  -20.6183   -6.5903  -27.1112 H   0  0  0  0  0  0  0  0  0  0  0  0
  -19.1959   -5.8150  -27.8040 H   0  0  0  0  0  0  0  0  0  0  0  0
  -20.5890   -8.7987  -34.2286 H   0  0  0  0  0  0  0  0  0  0  0  0
  -18.8113   -8.6071  -34.0989 H   0  0  0  0  0  0  0  0  0  0  0  0
  -21.0064   -6.9835  -32.7452 H   0  0  0  0  0  0  0  0  0  0  0  0
  -19.4041   -7.4442  -32.1464 H   0  0  0  0  0  0  0  0  0  0  0  0
  -24.0234   -2.9749  -26.2433 H   0  0  0  0  0  0  0  0  0  0  0  0
  -22.8540   -1.8413  -25.6129 H   0  0  0  0  0  0  0  0  0  0  0  0
  -21.7247   -5.4248  -24.9696 H   0  0  0  0  0  0  0  0  0  0  0  0
  -18.2305   -5.8221  -33.3866 H   0  0  0  0  0  0  0  0  0  0  0  0
  -24.0534   -2.4340  -23.7028 H   0  0  0  0  0  0  0  0  0  0  0  0
  -20.7767   -2.5832  -24.2700 H   0  0  0  0  0  0  0  0  0  0  0  0
  -23.8987   -5.3815  -24.5260 H   0  0  0  0  0  0  0  0  0  0  0  0
  -25.3083   -4.3114  -24.6495 H   0  0  0  0  0  0  0  0  0  0  0  0
  -24.6425   -4.7212  -23.0568 H   0  0  0  0  0  0  0  0  0  0  0  0
  -20.3371   -5.1033  -22.6224 H   0  0  0  0  0  0  0  0  0  0  0  0
  -20.1406   -3.4323  -22.0600 H   0  0  0  0  0  0  0  0  0  0  0  0
  -19.0749   -4.0735  -23.3253 H   0  0  0  0  0  0  0  0  0  0  0  0
  -19.7057   -3.6839  -33.5548 H   0  0  0  0  0  0  0  0  0  0  0  0
  -19.4898   -4.3882  -31.9314 H   0  0  0  0  0  0  0  0  0  0  0  0
  -16.9836   -3.2580  -26.6405 H   0  0  0  0  0  0  0  0  0  0  0  0
  -17.3164   -6.8729  -24.7863 H   0  0  0  0  0  0  0  0  0  0  0  0
  -19.5721   -5.0894  -35.5841 H   0  0  0  0  0  0  0  0  0  0  0  0
  1  2  2  0  0  0  0
  1  3  1  0  0  0  0
  2  5  1  0  0  0  0
  2  7  1  0  0  0  0
  3  4  2  0  0  0  0
  3 12  1  0  0  0  0
  4  6  1  0  0  0  0
  4 28  1  0  0  0  0
  5  6  2  0  0  0  0
  5 33  1  0  0  0  0
  6 36  1  0  0  0  0
  7 24  2  0  0  0  0
  7 35  1  0  0  0  0
  8 13  1  0  0  0  0
  8 27  1  0  0  0  0
  8 29  2  0  0  0  0
  9 20  1  0  0  0  0
  9 25  1  0  0  0  0
  9 30  2  0  0  0  0
 10 20  1  0  0  0  0
 10 26  1  0  0  0  0
 10 31  2  0  0  0  0
 11 25  1  0  0  0  0
 11 26  1  0  0  0  0
 11 32  2  0  0  0  0
 12 20  1  0  0  0  0
 13 14  1  0  0  0  0
 14 17  1  0  0  0  0
 15 18  1  0  0  0  0
 15 28  1  0  0  0  0
 16 19  1  0  0  0  0
 16 20  1  0  0  0  0
 16 28  1  0  0  0  0
 17 23  1  0  0  0  0
 17 27  1  0  0  0  0
 18 21  1  0  0  0  0
 18 34  1  0  0  0  0
 19 22  1  0  0  0  0
 19 34  1  0  0  0  0
 23 35  1  0  0  0  0
 24 33  1  0  0  0  0
  1 37  1  0  0  0  0
 12 38  1  0  0  0  0
 12 39  1  0  0  0  0
 13 40  1  0  0  0  0
 13 41  1  0  0  0  0
 14 42  1  0  0  0  0
 14 43  1  0  0  0  0
 15 44  1  0  0  0  0
 15 45  1  0  0  0  0
 16 46  1  0  0  0  0
 17 47  1  0  0  0  0
 18 48  1  0  0  0  0
 19 49  1  0  0  0  0
 21 50  1  0  0  0  0
 21 51  1  0  0  0  0
 21 52  1  0  0  0  0
 22 53  1  0  0  0  0
 22 54  1  0  0  0  0
 22 55  1  0  0  0  0
 23 56  1  0  0  0  0
 23 57  1  0  0  0  0
 25 58  1  0  0  0  0
 26 59  1  0  0  0  0
 27 60  1  0  0  0  0
M  END
> <SMILES>
C[C@@H]1CN2[C@H]([C@H](C)O1)C1(Cc3cc4c(noc4c(c32)F)OC[C@H]2CCC(=O)N2)C(=O)NC(=O)NC1=O

> <FORMATTED_ID>
H3D-005803

> <MOLFORMULA>
C23H24FN5O7

> <Exact Mass>
501.17

> <XLogP>
0.26

> <TPSA_NOPS>
152.4

> <s_m_source_file>
ligprep_h3d.sdf

> <i_m_source_file_index>
897

> <i_lp_mmshare_version>
55123

> <i_f3d_flags>
0

> <s_epik_input>
Tz1DMVtOSF1DKD1PKVtOSF1DKD1PKUMxMltDQEBIXTNOKFtDSDJdW0NAQEhdKFtDSDNdKU9bQ0BIXTNbQ0gzXSljNGMoW0NIMl0yKVtjSF1jNWMoYzRGKW9uYzVPW0NIMl1bQ0BIXTZbQ0gyXVtDSDJdQyg9TylbTkhdNg==

> <s_epik_cmdline>
J2VwaWtfcHl0aG9uJywgJy1waHQnLCAnMC41JywgJy1waCcsICc3LjUnLCAnLXRuJywgJzgnLCAnLW1hJywgJzUwMCcsICctaW1hZScsICc8aW5maWxlLm1hZT4nLCAnLW9tYWUnLCAnPG91dGZpbGUubWFlPic=

> <r_lp_tautomer_probability>
1

> <r_epik_Ionization_Penalty>
0.369127

> <r_epik_Ionization_Penalty_Charging>
0

> <r_epik_Ionization_Penalty_Neutral>
0.369127

> <r_epik_State_Penalty>
0.366447

> <r_epik_Charging_Adjusted_Penalty>
0.366447

> <i_epik_Tot_Q>
0

> <i_epik_Tot_abs_Q>
0

> <s_lp_Force_Field>
S-OPLS

> <r_lp_Energy>
37.2169

> <b_lp_Chiralities_Consistent>
1

> <s_lp_Variant>
ligprep_h3d.sdf:897-1

> <ROCS_ShapeQuery>
_7L13

> <ROCS_TanimotoCombo>
0.787 

> <ROCS_ShapeTanimoto>
0.666 

> <ROCS_ColorTanimoto>
0.122 

> <ROCS_RefTversky>
0.808 

> <ROCS_RefColorTversky>
0.290 

> <ROCS_RefTverskyCombo>
1.098 

> <ROCS_FitTversky>
0.791 

> <ROCS_FitColorTversky>
0.173 

> <ROCS_FitTverskyCombo>
0.964 

> <ROCS_ColorScore>
-2.714

> <ROCS_Overlap>
1343.507

> <ROCS_Rank>
139                 

$$$$
ligprep_h3d.sdf:5346_1905
  -OEChem-08212117123D

 80 86  0     0  0  0  0  0  0999 V2000
  -18.8016   -6.9677  -35.4481 C   0  0  0  0  0  0  0  0  0  0  0  0
  -19.8961   -7.7237  -35.0286 C   0  0  0  0  0  0  0  0  0  0  0  0
  -18.5964   -5.6895  -34.9285 C   0  0  0  0  0  0  0  0  0  0  0  0
  -20.7857   -7.2015  -34.0896 C   0  0  0  0  0  0  0  0  0  0  0  0
  -19.4860   -5.1673  -33.9895 C   0  0  0  0  0  0  0  0  0  0  0  0
  -23.0388   -3.8521  -28.8336 C   0  0  0  0  0  0  0  0  0  0  0  0
  -20.4056   -4.6952  -29.3702 C   0  0  0  0  0  0  0  0  0  0  0  0
  -14.5249   -5.6788  -25.6846 C   0  0  0  0  0  0  0  0  0  0  0  0
  -15.0370   -6.7398  -26.3936 C   0  0  0  0  0  0  0  0  0  0  0  0
  -22.1661   -4.1728  -27.8006 C   0  0  0  0  0  0  0  0  0  0  0  0
  -20.5806   -5.9233  -33.5700 C   0  0  0  0  0  0  0  0  0  0  0  0
  -20.8548   -4.5910  -28.0587 C   0  0  0  0  0  0  0  0  0  0  0  0
  -22.5837   -3.9486  -30.1479 C   0  0  0  0  0  0  0  0  0  0  0  0
  -21.2753   -4.3688  -30.4146 C   0  0  0  0  0  0  0  0  0  0  0  0
  -16.5789   -5.1902  -26.0177 C   0  0  0  0  0  0  0  0  0  0  0  0
  -17.8963   -4.6537  -26.1138 C   0  0  0  0  0  0  0  0  0  0  0  0
  -18.5769   -6.6360  -27.3574 C   0  0  0  0  0  0  0  0  0  0  0  0
  -17.3388   -7.1481  -27.2720 C   0  0  0  0  0  0  0  0  0  0  0  0
  -18.8769   -5.3323  -26.7551 C   0  0  0  0  0  0  0  0  0  0  0  0
  -23.3807   -2.9054  -24.3235 C   0  0  0  0  0  0  0  0  0  0  0  0
  -23.7695   -5.4025  -24.4828 C   0  0  0  0  0  0  0  0  0  0  0  0
  -23.0278   -2.8602  -25.8112 C   0  0  0  0  0  0  0  0  0  0  0  0
  -23.3756   -5.3708  -25.9624 C   0  0  0  0  0  0  0  0  0  0  0  0
  -25.9872   -5.0009  -20.7140 C   0  0  0  0  0  0  0  0  0  0  0  0
  -24.8829   -2.8671  -20.4400 C   0  0  0  0  0  0  0  0  0  0  0  0
  -20.9931   -4.4229  -25.7616 C   0  0  0  0  0  0  0  0  0  0  0  0
  -25.8223   -4.9315  -22.2285 C   0  0  0  0  0  0  0  0  0  0  0  0
  -24.6860   -2.7359  -21.9466 C   0  0  0  0  0  0  0  0  0  0  0  0
  -24.3360   -4.0591  -24.0338 C   0  0  0  0  0  0  0  0  0  0  0  0
  -22.4378   -4.1932  -26.3144 C   0  0  0  0  0  0  0  0  0  0  0  0
  -26.2819   -3.7389  -18.6827 C   0  0  0  0  0  0  0  0  0  0  0  0
  -23.4341   -2.2817  -31.6154 C   0  0  0  0  0  0  0  0  0  0  0  0
  -21.5372   -5.3609  -32.5600 C   0  0  0  0  0  0  0  0  0  0  0  0
  -15.4825   -4.7238  -25.4551 N   0  0  0  0  0  0  0  0  0  0  0  0
  -16.3547   -6.4276  -26.6078 N   0  0  0  0  0  0  0  0  0  0  0  0
  -20.1443   -4.8662  -26.8743 N   0  0  0  0  0  0  0  0  0  0  0  0
  -26.0818   -3.6568  -20.1292 N   0  0  0  0  0  0  0  0  0  0  0  0
  -24.5991   -4.1126  -22.5557 N   0  3  0  0  0  0  0  0  0  0  0  0
  -23.4287   -3.6364  -31.1709 O   0  0  0  0  0  0  0  0  0  0  0  0
  -20.8344   -4.4658  -31.7015 O   0  0  0  0  0  0  0  0  0  0  0  0
  -18.1083   -7.3749  -36.1782 H   0  0  0  0  0  0  0  0  0  0  0  0
  -20.0554   -8.7193  -35.4322 H   0  0  0  0  0  0  0  0  0  0  0  0
  -17.7438   -5.1011  -35.2540 H   0  0  0  0  0  0  0  0  0  0  0  0
  -21.6359   -7.7976  -33.7687 H   0  0  0  0  0  0  0  0  0  0  0  0
  -19.3183   -4.1705  -33.5902 H   0  0  0  0  0  0  0  0  0  0  0  0
  -24.0581   -3.5426  -28.6258 H   0  0  0  0  0  0  0  0  0  0  0  0
  -19.3943   -5.0183  -29.5969 H   0  0  0  0  0  0  0  0  0  0  0  0
  -13.5130   -5.5549  -25.3276 H   0  0  0  0  0  0  0  0  0  0  0  0
  -14.5934   -7.6582  -26.7528 H   0  0  0  0  0  0  0  0  0  0  0  0
  -18.0922   -3.6875  -25.6590 H   0  0  0  0  0  0  0  0  0  0  0  0
  -19.3645   -7.1773  -27.8706 H   0  0  0  0  0  0  0  0  0  0  0  0
  -17.0683   -8.1055  -27.7004 H   0  0  0  0  0  0  0  0  0  0  0  0
  -22.4628   -3.0087  -23.7316 H   0  0  0  0  0  0  0  0  0  0  0  0
  -23.8415   -1.9528  -24.0354 H   0  0  0  0  0  0  0  0  0  0  0  0
  -24.5125   -6.1945  -24.3281 H   0  0  0  0  0  0  0  0  0  0  0  0
  -22.8960   -5.6694  -23.8759 H   0  0  0  0  0  0  0  0  0  0  0  0
  -23.9394   -2.6162  -26.3725 H   0  0  0  0  0  0  0  0  0  0  0  0
  -22.3302   -2.0332  -25.9960 H   0  0  0  0  0  0  0  0  0  0  0  0
  -22.9128   -6.3291  -26.2323 H   0  0  0  0  0  0  0  0  0  0  0  0
  -24.2955   -5.3006  -26.5590 H   0  0  0  0  0  0  0  0  0  0  0  0
  -26.9052   -5.5613  -20.4995 H   0  0  0  0  0  0  0  0  0  0  0  0
  -25.1538   -5.5654  -20.2748 H   0  0  0  0  0  0  0  0  0  0  0  0
  -23.9887   -3.3134  -19.9846 H   0  0  0  0  0  0  0  0  0  0  0  0
  -24.9886   -1.8583  -20.0229 H   0  0  0  0  0  0  0  0  0  0  0  0
  -20.5747   -3.4889  -25.3632 H   0  0  0  0  0  0  0  0  0  0  0  0
  -20.9720   -5.1564  -24.9480 H   0  0  0  0  0  0  0  0  0  0  0  0
  -25.6665   -5.9301  -22.6459 H   0  0  0  0  0  0  0  0  0  0  0  0
  -26.6816   -4.4570  -22.7128 H   0  0  0  0  0  0  0  0  0  0  0  0
  -25.5193   -2.2111  -22.4244 H   0  0  0  0  0  0  0  0  0  0  0  0
  -23.7471   -2.2217  -22.1696 H   0  0  0  0  0  0  0  0  0  0  0  0
  -25.3073   -3.8780  -24.5083 H   0  0  0  0  0  0  0  0  0  0  0  0
  -26.3502   -2.7243  -18.2633 H   0  0  0  0  0  0  0  0  0  0  0  0
  -27.2125   -4.2861  -18.4719 H   0  0  0  0  0  0  0  0  0  0  0  0
  -25.4334   -4.2684  -18.2248 H   0  0  0  0  0  0  0  0  0  0  0  0
  -24.1502   -2.1686  -32.4331 H   0  0  0  0  0  0  0  0  0  0  0  0
  -22.4324   -2.0040  -31.9531 H   0  0  0  0  0  0  0  0  0  0  0  0
  -23.7284   -1.6361  -30.7846 H   0  0  0  0  0  0  0  0  0  0  0  0
  -22.3519   -4.8184  -33.0517 H   0  0  0  0  0  0  0  0  0  0  0  0
  -21.9810   -6.1615  -31.9585 H   0  0  0  0  0  0  0  0  0  0  0  0
  -23.7917   -4.5867  -22.1253 H   0  0  0  0  0  0  0  0  0  0  0  0
  1  2  2  0  0  0  0
  1  3  1  0  0  0  0
  2  4  1  0  0  0  0
  3  5  2  0  0  0  0
  4 11  2  0  0  0  0
  5 11  1  0  0  0  0
  6 10  1  0  0  0  0
  6 13  2  0  0  0  0
  7 12  1  0  0  0  0
  7 14  2  0  0  0  0
  8  9  2  0  0  0  0
  8 34  1  0  0  0  0
  9 35  1  0  0  0  0
 10 12  2  0  0  0  0
 10 30  1  0  0  0  0
 11 33  1  0  0  0  0
 12 36  1  0  0  0  0
 13 14  1  0  0  0  0
 13 39  1  0  0  0  0
 14 40  1  0  0  0  0
 15 16  1  0  0  0  0
 15 34  2  0  0  0  0
 15 35  1  0  0  0  0
 16 19  2  0  0  0  0
 17 18  2  0  0  0  0
 17 19  1  0  0  0  0
 18 35  1  0  0  0  0
 19 36  1  0  0  0  0
 20 22  1  0  0  0  0
 20 29  1  0  0  0  0
 21 23  1  0  0  0  0
 21 29  1  0  0  0  0
 22 30  1  0  0  0  0
 23 30  1  0  0  0  0
 24 27  1  0  0  0  0
 24 37  1  0  0  0  0
 25 28  1  0  0  0  0
 25 37  1  0  0  0  0
 26 30  1  0  0  0  0
 26 36  1  0  0  0  0
 27 38  1  0  0  0  0
 28 38  1  0  0  0  0
 29 38  1  0  0  0  0
 31 37  1  0  0  0  0
 32 39  1  0  0  0  0
 33 40  1  0  0  0  0
  1 41  1  0  0  0  0
  2 42  1  0  0  0  0
  3 43  1  0  0  0  0
  4 44  1  0  0  0  0
  5 45  1  0  0  0  0
  6 46  1  0  0  0  0
  7 47  1  0  0  0  0
  8 48  1  0  0  0  0
  9 49  1  0  0  0  0
 16 50  1  0  0  0  0
 17 51  1  0  0  0  0
 18 52  1  0  0  0  0
 20 53  1  0  0  0  0
 20 54  1  0  0  0  0
 21 55  1  0  0  0  0
 21 56  1  0  0  0  0
 22 57  1  0  0  0  0
 22 58  1  0  0  0  0
 23 59  1  0  0  0  0
 23 60  1  0  0  0  0
 24 61  1  0  0  0  0
 24 62  1  0  0  0  0
 25 63  1  0  0  0  0
 25 64  1  0  0  0  0
 26 65  1  0  0  0  0
 26 66  1  0  0  0  0
 27 67  1  0  0  0  0
 27 68  1  0  0  0  0
 28 69  1  0  0  0  0
 28 70  1  0  0  0  0
 29 71  1  0  0  0  0
 31 72  1  0  0  0  0
 31 73  1  0  0  0  0
 31 74  1  0  0  0  0
 32 75  1  0  0  0  0
 32 76  1  0  0  0  0
 32 77  1  0  0  0  0
 33 78  1  0  0  0  0
 33 79  1  0  0  0  0
 38 80  1  0  0  0  0
M  CHG  1  38   1
M  END
> <SMILES>
COc1cc2c(cc1OCc1ccccc1)N(CC12CCC(CC1)N1CCN(C)CC1)c1ccn2ccnc2c1

> <FORMATTED_ID>
H3D-014980

> <MOLFORMULA>
C33H39N5O2

> <Exact Mass>
537.31

> <XLogP>
6.54

> <TPSA_NOPS>
45.5

> <s_m_source_file>
ligprep_h3d.sdf

> <i_m_source_file_index>
5346

> <i_lp_mmshare_version>
55123

> <i_f3d_flags>
0

> <s_epik_input>
W2NIXTFbY0hdW2NIXVtjSF1bY0hdYzFbQ0gyXU9jKGMoW2NIXTIpT1tDSDNdKVtjSF1jKE4oW0NIMl0zKWMoW2NIXVtjSF00KVtjSF1jKG40NSluW2NIXVtjSF01KWMyW0NAXTM2W0NIMl1bQ0gyXVtDQEhdKFtDSDJdW0NIMl02KU43W0NIMl1bQ0gyXU4oW0NIM10pW0NIMl1bQ0gyXTc=

> <s_epik_cmdline>
J2VwaWtfcHl0aG9uJywgJy1waHQnLCAnMC41JywgJy1waCcsICc3LjUnLCAnLXRuJywgJzgnLCAnLW1hJywgJzUwMCcsICctaW1hZScsICc8aW5maWxlLm1hZT4nLCAnLW9tYWUnLCAnPG91dGZpbGUubWFlPic=

> <r_lp_tautomer_probability>
1

> <r_epik_Ionization_Penalty>
0.497574

> <r_epik_Ionization_Penalty_Charging>
0.496857

> <r_epik_Ionization_Penalty_Neutral>
0.000717153

> <r_epik_State_Penalty>
0.501635

> <r_epik_Charging_Adjusted_Penalty>
0.998492

> <i_epik_Tot_Q>
1

> <i_epik_Tot_abs_Q>
1

> <s_lp_Force_Field>
S-OPLS

> <r_lp_Energy>
100.049

> <b_lp_Chiralities_Consistent>
1

> <s_lp_Variant>
ligprep_h3d.sdf:5346-2

> <ROCS_ShapeQuery>
_7L13

> <ROCS_TanimotoCombo>
0.724 

> <ROCS_ShapeTanimoto>
0.623 

> <ROCS_ColorTanimoto>
0.101 

> <ROCS_RefTversky>
0.808 

> <ROCS_RefColorTversky>
0.221 

> <ROCS_RefTverskyCombo>
1.029 

> <ROCS_FitTversky>
0.731 

> <ROCS_FitColorTversky>
0.158 

> <ROCS_FitTverskyCombo>
0.889 

> <ROCS_ColorScore>
-2.030

> <ROCS_Overlap>
1349.718

> <ROCS_Rank>
140                 

$$$$
ligprep_h3d.sdf:412_288
  -OEChem-08212117123D

 64 69  0     1  0  0  0  0  0999 V2000
  -20.9385   -5.0861  -29.5185 C   0  0  0  0  0  0  0  0  0  0  0  0
  -21.7371   -4.3455  -30.3922 C   0  0  0  0  0  0  0  0  0  0  0  0
  -21.0576   -4.8573  -28.1260 C   0  0  0  0  0  0  0  0  0  0  0  0
  -21.9840   -3.9360  -27.5834 C   0  0  0  0  0  0  0  0  0  0  0  0
  -22.6123   -3.4250  -29.8595 C   0  0  0  0  0  0  0  0  0  0  0  0
  -22.7662   -3.1862  -28.4936 C   0  0  0  0  0  0  0  0  0  0  0  0
  -21.9380   -4.2350  -31.7806 C   0  0  0  0  0  0  0  0  0  0  0  0
  -18.9222   -3.7435  -26.2056 C   0  0  0  0  0  0  0  0  0  0  0  0
  -19.1964   -6.0263  -25.0393 C   0  0  0  0  0  0  0  0  0  0  0  0
  -16.9608   -5.1947  -25.7384 C   0  0  0  0  0  0  0  0  0  0  0  0
  -19.7369   -8.4764  -35.6160 C   0  0  0  0  0  0  0  0  0  0  0  0
  -20.1665   -5.6588  -27.2149 C   0  0  0  0  0  0  0  0  0  0  0  0
  -19.4536   -5.8788  -33.9568 C   0  0  0  0  0  0  0  0  0  0  0  0
  -19.9589   -4.6062  -33.2770 C   0  0  0  0  0  0  0  0  0  0  0  0
  -21.6615   -6.3222  -33.1479 C   0  0  0  0  0  0  0  0  0  0  0  0
  -23.0792   -2.8347  -25.6416 C   0  0  0  0  0  0  0  0  0  0  0  0
  -21.1956   -4.4638  -25.2416 C   0  0  2  0  0  0  0  0  0  0  0  0
  -20.7415   -6.5940  -34.3393 C   0  0  2  0  0  0  0  0  0  0  0  0
  -23.4398   -3.1666  -24.1908 C   0  0  1  0  0  0  0  0  0  0  0  0
  -21.0554   -3.5330  -24.0020 C   0  0  2  0  0  0  0  0  0  0  0  0
  -19.8537   -4.9247  -25.8871 C   0  0  0  0  0  0  0  0  0  0  0  0
  -19.6872   -9.9655  -35.7078 C   0  0  0  0  0  0  0  0  0  0  0  0
  -24.3947   -4.3537  -24.0789 C   0  0  0  0  0  0  0  0  0  0  0  0
  -20.0872   -3.9964  -22.9201 C   0  0  0  0  0  0  0  0  0  0  0  0
  -22.8617   -3.3191  -32.0878 N   0  0  0  0  0  0  0  0  0  0  0  0
  -17.5705   -4.0486  -26.2282 N   0  0  0  0  0  0  0  0  0  0  0  0
  -17.8165   -6.1097  -25.1419 N   0  0  0  0  0  0  0  0  0  0  0  0
  -22.0980   -3.7735  -26.2006 N   0  0  3  0  0  0  0  0  0  0  0  0
  -21.2348   -5.0028  -32.6842 N   0  0  0  0  0  0  0  0  0  0  0  0
  -20.5526   -7.9902  -34.6031 N   0  0  0  0  0  0  0  0  0  0  0  0
  -19.3320   -2.6171  -26.4860 O   0  0  0  0  0  0  0  0  0  0  0  0
  -19.8459   -6.8404  -24.3816 O   0  0  0  0  0  0  0  0  0  0  0  0
  -15.7422   -5.3687  -25.7925 O   0  0  0  0  0  0  0  0  0  0  0  0
  -19.0840   -7.8005  -36.4025 O   0  0  0  0  0  0  0  0  0  0  0  0
  -23.2857   -2.8058  -30.8675 O   0  0  0  0  0  0  0  0  0  0  0  0
  -22.3208   -3.4030  -23.3420 O   0  0  0  0  0  0  0  0  0  0  0  0
  -23.5741   -2.1862  -28.1217 F   0  0  0  0  0  0  0  0  0  0  0  0
  -20.2321   -5.8180  -29.9000 H   0  0  0  0  0  0  0  0  0  0  0  0
  -20.6697   -6.6162  -27.0219 H   0  0  0  0  0  0  0  0  0  0  0  0
  -19.2291   -5.8963  -27.7364 H   0  0  0  0  0  0  0  0  0  0  0  0
  -18.8225   -5.6596  -34.8233 H   0  0  0  0  0  0  0  0  0  0  0  0
  -18.8708   -6.4732  -33.2420 H   0  0  0  0  0  0  0  0  0  0  0  0
  -19.2444   -4.2475  -32.5273 H   0  0  0  0  0  0  0  0  0  0  0  0
  -20.1279   -3.8116  -34.0139 H   0  0  0  0  0  0  0  0  0  0  0  0
  -22.7161   -6.3295  -33.4472 H   0  0  0  0  0  0  0  0  0  0  0  0
  -21.5144   -7.0545  -32.3439 H   0  0  0  0  0  0  0  0  0  0  0  0
  -23.9899   -2.8965  -26.2727 H   0  0  0  0  0  0  0  0  0  0  0  0
  -22.7950   -1.7717  -25.6760 H   0  0  0  0  0  0  0  0  0  0  0  0
  -21.7506   -5.3586  -24.9194 H   0  0  0  0  0  0  0  0  0  0  0  0
  -21.1643   -6.1439  -35.2456 H   0  0  0  0  0  0  0  0  0  0  0  0
  -24.0094   -2.2761  -23.7505 H   0  0  0  0  0  0  0  0  0  0  0  0
  -20.7365   -2.5195  -24.3073 H   0  0  0  0  0  0  0  0  0  0  0  0
  -20.4633  -10.3717  -36.3762 H   0  0  0  0  0  0  0  0  0  0  0  0
  -18.7311  -10.3299  -36.1165 H   0  0  0  0  0  0  0  0  0  0  0  0
  -19.8172  -10.5011  -34.7538 H   0  0  0  0  0  0  0  0  0  0  0  0
  -23.9234   -5.2508  -24.4806 H   0  0  0  0  0  0  0  0  0  0  0  0
  -25.3074   -4.1525  -24.6399 H   0  0  0  0  0  0  0  0  0  0  0  0
  -24.6529   -4.5276  -23.0341 H   0  0  0  0  0  0  0  0  0  0  0  0
  -20.3577   -4.9965  -22.5814 H   0  0  0  0  0  0  0  0  0  0  0  0
  -20.1226   -3.3137  -22.0711 H   0  0  0  0  0  0  0  0  0  0  0  0
  -19.0711   -4.0189  -23.3141 H   0  0  0  0  0  0  0  0  0  0  0  0
  -16.9585   -3.3567  -26.6500 H   0  0  0  0  0  0  0  0  0  0  0  0
  -17.3774   -6.9034  -24.6842 H   0  0  0  0  0  0  0  0  0  0  0  0
  -21.0446   -8.6638  -34.0142 H   0  0  0  0  0  0  0  0  0  0  0  0
  1  2  2  0  0  0  0
  1  3  1  0  0  0  0
  2  5  1  0  0  0  0
  2  7  1  0  0  0  0
  3  4  2  0  0  0  0
  3 12  1  0  0  0  0
  4  6  1  0  0  0  0
  4 28  1  0  0  0  0
  5  6  2  0  0  0  0
  5 35  1  0  0  0  0
  6 37  1  0  0  0  0
  7 25  2  0  0  0  0
  7 29  1  0  0  0  0
  8 21  1  0  0  0  0
  8 26  1  0  0  0  0
  8 31  2  0  0  0  0
  9 21  1  0  0  0  0
  9 27  1  0  0  0  0
  9 32  2  0  0  0  0
 10 26  1  0  0  0  0
 10 27  1  0  0  0  0
 10 33  2  0  0  0  0
 11 22  1  0  0  0  0
 11 30  1  0  0  0  0
 11 34  2  0  0  0  0
 12 21  1  0  0  0  0
 13 14  1  0  0  0  0
 13 18  1  0  0  0  0
 14 29  1  0  0  0  0
 15 18  1  0  0  0  0
 15 29  1  0  0  0  0
 16 19  1  0  0  0  0
 16 28  1  0  0  0  0
 17 20  1  0  0  0  0
 17 21  1  0  0  0  0
 17 28  1  0  0  0  0
 18 30  1  0  0  0  0
 19 23  1  0  0  0  0
 19 36  1  0  0  0  0
 20 24  1  0  0  0  0
 20 36  1  0  0  0  0
 25 35  1  0  0  0  0
  1 38  1  0  0  0  0
 12 39  1  0  0  0  0
 12 40  1  0  0  0  0
 13 41  1  0  0  0  0
 13 42  1  0  0  0  0
 14 43  1  0  0  0  0
 14 44  1  0  0  0  0
 15 45  1  0  0  0  0
 15 46  1  0  0  0  0
 16 47  1  0  0  0  0
 16 48  1  0  0  0  0
 17 49  1  0  0  0  0
 18 50  1  0  0  0  0
 19 51  1  0  0  0  0
 20 52  1  0  0  0  0
 22 53  1  0  0  0  0
 22 54  1  0  0  0  0
 22 55  1  0  0  0  0
 23 56  1  0  0  0  0
 23 57  1  0  0  0  0
 23 58  1  0  0  0  0
 24 59  1  0  0  0  0
 24 60  1  0  0  0  0
 24 61  1  0  0  0  0
 26 62  1  0  0  0  0
 27 63  1  0  0  0  0
 30 64  1  0  0  0  0
M  END
> <SMILES>
CC1CN2C(C(C)O1)C1(Cc3cc4c(noc4c(c32)F)N2CC[C@H](C2)NC(=O)C)C(=O)NC(=O)NC1=O

> <FORMATTED_ID>
H3D-003833

> <MOLFORMULA>
C24H27FN6O6

> <Exact Mass>
514.2

> <XLogP>
0.23

> <TPSA_NOPS>
146.4

> <s_m_source_file>
ligprep_h3d.sdf

> <i_m_source_file_index>
412

> <i_lp_mmshare_version>
55123

> <i_f3d_flags>
0

> <s_epik_input>
Tz1DMVtOSF1DKD1PKVtOSF1DKD1PKUMxMltDQEBIXTNOKFtDSDJdW0NAQEhdKFtDSDNdKU9bQ0BIXTNbQ0gzXSljNGMoW0NIMl0yKVtjSF1jNWMoYzRGKW9uYzVONltDSDJdW0NIMl1bQ0BIXShbQ0gyXTYpW05IXUMoPU8pW0NIM10=

> <s_epik_cmdline>
J2VwaWtfcHl0aG9uJywgJy1waHQnLCAnMC41JywgJy1waCcsICc3LjUnLCAnLXRuJywgJzgnLCAnLW1hJywgJzUwMCcsICctaW1hZScsICc8aW5maWxlLm1hZT4nLCAnLW9tYWUnLCAnPG91dGZpbGUubWFlPic=

> <r_lp_tautomer_probability>
1

> <r_epik_Ionization_Penalty>
0.369126

> <r_epik_Ionization_Penalty_Charging>
0

> <r_epik_Ionization_Penalty_Neutral>
0.369126

> <r_epik_State_Penalty>
0.366447

> <r_epik_Charging_Adjusted_Penalty>
0.366447

> <i_epik_Tot_Q>
0

> <i_epik_Tot_abs_Q>
0

> <s_lp_Force_Field>
S-OPLS

> <r_lp_Energy>
43.987

> <b_lp_Chiralities_Consistent>
1

> <s_lp_Variant>
ligprep_h3d.sdf:412-1

> <ROCS_ShapeQuery>
_7L13

> <ROCS_TanimotoCombo>
0.784 

> <ROCS_ShapeTanimoto>
0.654 

> <ROCS_ColorTanimoto>
0.130 

> <ROCS_RefTversky>
0.808 

> <ROCS_RefColorTversky>
0.297 

> <ROCS_RefTverskyCombo>
1.105 

> <ROCS_FitTversky>
0.774 

> <ROCS_FitColorTversky>
0.187 

> <ROCS_FitTverskyCombo>
0.962 

> <ROCS_ColorScore>
-2.762

> <ROCS_Overlap>
1345.079

> <ROCS_Rank>
141                 

$$$$
ligprep_h3d.sdf:1266_1610
  -OEChem-08212117123D

 69 73  0     1  0  0  0  0  0999 V2000
  -20.2319   -3.9614  -32.2468 C   0  0  0  0  0  0  0  0  0  0  0  0
  -20.8096   -6.2988  -32.0474 C   0  0  0  0  0  0  0  0  0  0  0  0
  -19.7231   -4.1961  -33.5242 C   0  0  0  0  0  0  0  0  0  0  0  0
  -20.3009   -6.5335  -33.3248 C   0  0  0  0  0  0  0  0  0  0  0  0
  -16.6867   -4.9728  -26.6923 C   0  0  0  0  0  0  0  0  0  0  0  0
  -23.1619   -4.1871  -28.7494 C   0  0  0  0  0  0  0  0  0  0  0  0
  -20.7609   -4.4918  -25.3712 C   0  0  0  0  0  0  0  0  0  0  0  0
  -17.1647   -6.2918  -26.5762 C   0  0  0  0  0  0  0  0  0  0  0  0
  -21.0127   -4.6347  -27.7714 C   0  0  0  0  0  0  0  0  0  0  0  0
  -20.7751   -5.0127  -31.5084 C   0  0  0  0  0  0  0  0  0  0  0  0
  -21.3051   -4.7681  -30.1773 C   0  0  0  0  0  0  0  0  0  0  0  0
  -19.7577   -5.4822  -34.0632 C   0  0  0  0  0  0  0  0  0  0  0  0
  -22.6425   -4.4245  -30.0245 C   0  0  0  0  0  0  0  0  0  0  0  0
  -20.4901   -4.8735  -29.0538 C   0  0  0  0  0  0  0  0  0  0  0  0
  -22.3698   -4.2855  -27.6088 C   0  0  0  0  0  0  0  0  0  0  0  0
  -20.2149   -4.7337  -26.6235 C   0  0  0  0  0  0  0  0  0  0  0  0
  -22.0983   -4.1563  -25.3121 C   0  0  0  0  0  0  0  0  0  0  0  0
  -17.8205   -4.1983  -26.7254 C   0  0  0  0  0  0  0  0  0  0  0  0
  -19.0191   -7.6364  -36.6775 C   0  0  0  0  0  0  0  0  0  0  0  0
  -22.7326   -3.8918  -24.0321 C   0  0  0  0  0  0  0  0  0  0  0  0
  -20.2815   -5.7065  -36.5033 C   0  0  0  0  0  0  0  0  0  0  0  0
  -19.2135   -5.7332  -35.4288 C   0  0  2  0  0  0  0  0  0  0  0  0
  -23.5617   -4.2962  -31.1977 C   0  0  0  0  0  0  0  0  0  0  0  0
  -19.0551   -5.2489  -29.2969 C   0  0  0  0  0  0  0  0  0  0  0  0
  -17.9805   -2.7351  -26.8370 C   0  0  0  0  0  0  0  0  0  0  0  0
  -28.2482   -6.2947  -23.4352 C   0  0  0  0  0  0  0  0  0  0  0  0
  -24.8726   -3.9621  -22.7257 C   0  0  0  0  0  0  0  0  0  0  0  0
  -26.3212   -4.3783  -22.8945 C   0  0  0  0  0  0  0  0  0  0  0  0
  -18.4983   -6.3554  -26.5379 N   0  0  0  0  0  0  0  0  0  0  0  0
  -22.9024   -4.0501  -26.3947 N   0  0  0  0  0  0  0  0  0  0  0  0
  -26.0133   -6.9054  -22.1033 N   0  0  0  0  0  0  0  0  0  0  0  0
  -18.8679   -5.0667  -26.6305 N   0  0  0  0  0  0  0  0  0  0  0  0
  -19.9213   -6.8188  -37.3197 N   0  0  0  0  0  0  0  0  0  0  0  0
  -24.0966   -4.1901  -23.9235 N   0  0  0  0  0  0  0  0  0  0  0  0
  -18.5877   -8.7088  -37.0765 O   0  0  0  0  0  0  0  0  0  0  0  0
  -22.0806   -3.4019  -23.0920 O   0  0  0  0  0  0  0  0  0  0  0  0
  -25.9637   -6.2306  -24.6788 O   0  0  0  0  0  0  0  0  0  0  0  0
  -18.6677   -7.0683  -35.4789 O   0  0  0  0  0  0  0  0  0  0  0  0
  -26.4839   -6.0824  -23.3273 S   0  0  1  0  0  0  0  0  0  0  0  0
  -20.1972   -2.9534  -31.8402 H   0  0  0  0  0  0  0  0  0  0  0  0
  -21.2304   -7.1286  -31.4844 H   0  0  0  0  0  0  0  0  0  0  0  0
  -19.3008   -3.3713  -34.0919 H   0  0  0  0  0  0  0  0  0  0  0  0
  -20.3324   -7.5386  -33.7372 H   0  0  0  0  0  0  0  0  0  0  0  0
  -15.6625   -4.6332  -26.7442 H   0  0  0  0  0  0  0  0  0  0  0  0
  -24.2125   -3.9185  -28.6446 H   0  0  0  0  0  0  0  0  0  0  0  0
  -20.1647   -4.5617  -24.4655 H   0  0  0  0  0  0  0  0  0  0  0  0
  -16.5967   -7.2092  -26.5177 H   0  0  0  0  0  0  0  0  0  0  0  0
  -21.2944   -5.8785  -36.1241 H   0  0  0  0  0  0  0  0  0  0  0  0
  -20.2702   -4.7843  -37.0906 H   0  0  0  0  0  0  0  0  0  0  0  0
  -18.4030   -5.0279  -35.6332 H   0  0  0  0  0  0  0  0  0  0  0  0
  -23.5468   -3.2693  -31.5784 H   0  0  0  0  0  0  0  0  0  0  0  0
  -23.2660   -4.9751  -32.0059 H   0  0  0  0  0  0  0  0  0  0  0  0
  -24.5908   -4.5541  -30.9219 H   0  0  0  0  0  0  0  0  0  0  0  0
  -18.9475   -6.3361  -29.2717 H   0  0  0  0  0  0  0  0  0  0  0  0
  -18.7178   -4.8788  -30.2690 H   0  0  0  0  0  0  0  0  0  0  0  0
  -18.4057   -4.8076  -28.5355 H   0  0  0  0  0  0  0  0  0  0  0  0
  -18.0489   -2.4223  -27.8917 H   0  0  0  0  0  0  0  0  0  0  0  0
  -18.8885   -2.3778  -26.3218 H   0  0  0  0  0  0  0  0  0  0  0  0
  -17.1366   -2.1906  -26.3798 H   0  0  0  0  0  0  0  0  0  0  0  0
  -28.4544   -7.3324  -23.7022 H   0  0  0  0  0  0  0  0  0  0  0  0
  -28.6838   -6.0559  -22.4639 H   0  0  0  0  0  0  0  0  0  0  0  0
  -28.6299   -5.6193  -24.2023 H   0  0  0  0  0  0  0  0  0  0  0  0
  -24.7863   -2.9007  -22.4734 H   0  0  0  0  0  0  0  0  0  0  0  0
  -24.4039   -4.5456  -21.9275 H   0  0  0  0  0  0  0  0  0  0  0  0
  -26.7885   -3.8110  -23.7049 H   0  0  0  0  0  0  0  0  0  0  0  0
  -26.8978   -4.2243  -21.9774 H   0  0  0  0  0  0  0  0  0  0  0  0
  -25.0048   -6.8663  -21.9298 H   0  0  0  0  0  0  0  0  0  0  0  0
  -20.2832   -6.9860  -38.2532 H   0  0  0  0  0  0  0  0  0  0  0  0
  -24.5959   -4.5290  -24.7394 H   0  0  0  0  0  0  0  0  0  0  0  0
  1  3  1  0  0  0  0
  1 10  2  0  0  0  0
  2  4  2  0  0  0  0
  2 10  1  0  0  0  0
  3 12  2  0  0  0  0
  4 12  1  0  0  0  0
  5  8  1  0  0  0  0
  5 18  2  0  0  0  0
  6 13  2  0  0  0  0
  6 15  1  0  0  0  0
  7 16  1  0  0  0  0
  7 17  2  0  0  0  0
  8 29  2  0  0  0  0
  9 14  1  0  0  0  0
  9 15  1  0  0  0  0
  9 16  2  0  0  0  0
 10 11  1  0  0  0  0
 11 13  1  0  0  0  0
 11 14  2  0  0  0  0
 12 22  1  0  0  0  0
 13 23  1  0  0  0  0
 14 24  1  0  0  0  0
 15 30  2  0  0  0  0
 16 32  1  0  0  0  0
 17 20  1  0  0  0  0
 17 30  1  0  0  0  0
 18 25  1  0  0  0  0
 18 32  1  0  0  0  0
 19 33  1  0  0  0  0
 19 35  2  0  0  0  0
 19 38  1  0  0  0  0
 20 34  1  0  0  0  0
 20 36  2  0  0  0  0
 21 22  1  0  0  0  0
 21 33  1  0  0  0  0
 22 38  1  0  0  0  0
 26 39  1  0  0  0  0
 27 28  1  0  0  0  0
 27 34  1  0  0  0  0
 28 39  1  0  0  0  0
 29 32  1  0  0  0  0
 31 39  2  0  0  0  0
 37 39  2  0  0  0  0
  1 40  1  0  0  0  0
  2 41  1  0  0  0  0
  3 42  1  0  0  0  0
  4 43  1  0  0  0  0
  5 44  1  0  0  0  0
  6 45  1  0  0  0  0
  7 46  1  0  0  0  0
  8 47  1  0  0  0  0
 21 48  1  0  0  0  0
 21 49  1  0  0  0  0
 22 50  1  0  0  0  0
 23 51  1  0  0  0  0
 23 52  1  0  0  0  0
 23 53  1  0  0  0  0
 24 54  1  0  0  0  0
 24 55  1  0  0  0  0
 24 56  1  0  0  0  0
 25 57  1  0  0  0  0
 25 58  1  0  0  0  0
 25 59  1  0  0  0  0
 26 60  1  0  0  0  0
 26 61  1  0  0  0  0
 26 62  1  0  0  0  0
 27 63  1  0  0  0  0
 27 64  1  0  0  0  0
 28 65  1  0  0  0  0
 28 66  1  0  0  0  0
 31 67  1  0  0  0  0
 33 68  1  0  0  0  0
 34 69  1  0  0  0  0
M  END
> <SMILES>
Cc1cc2nc(cc(c2c(c1-c1ccc(cc1)C1CNC(=O)O1)C)-n1nccc1C)C(=O)NCCS(=N)(=O)C

> <FORMATTED_ID>
H3D-008563

> <MOLFORMULA>
C28H30N6O4S

> <Exact Mass>
546.2

> <XLogP>
3.35

> <TPSA_NOPS>
147.4

> <s_m_source_file>
ligprep_h3d.sdf

> <i_m_source_file_index>
1266

> <i_lp_mmshare_version>
55123

> <i_f3d_flags>
0

> <s_epik_input>
Tz1DKE8xKVtOSF1bQ0gyXVtDQEhdMWMoW2NIXVtjSF0yKVtjSF1bY0hdYzItYyhjKFtDSDNdKVtjSF0zKWMoW0NIM10pYyhjMzQpYygtbjVuW2NIXVtjSF1jNVtDSDNdKVtjSF1jKG40KUMoPU8pW05IXVtDSDJdW0NIMl1bU0BAXSg9TykoPVtOSF0pW0NIM10=

> <s_epik_cmdline>
J2VwaWtfcHl0aG9uJywgJy1waHQnLCAnMC41JywgJy1waCcsICc3LjUnLCAnLXRuJywgJzgnLCAnLW1hJywgJzUwMCcsICctaW1hZScsICc8aW5maWxlLm1hZT4nLCAnLW9tYWUnLCAnPG91dGZpbGUubWFlPic=

> <r_lp_tautomer_probability>
1

> <r_epik_Ionization_Penalty>
2.4373e-05

> <r_epik_Ionization_Penalty_Charging>
0

> <r_epik_Ionization_Penalty_Neutral>
2.4373e-05

> <r_epik_State_Penalty>
-0

> <r_epik_Charging_Adjusted_Penalty>
0

> <i_epik_Tot_Q>
0

> <i_epik_Tot_abs_Q>
0

> <s_epik_Chemistry_Notes>
This compound has an ester and may undergo hydrolysis at high or low pH.

> <s_lp_Force_Field>
S-OPLS

> <r_lp_Energy>
24.5677

> <b_lp_Chiralities_Consistent>
1

> <s_lp_Variant>
ligprep_h3d.sdf:1266-1

> <ROCS_ShapeQuery>
_7L13

> <ROCS_TanimotoCombo>
0.746 

> <ROCS_ShapeTanimoto>
0.639 

> <ROCS_ColorTanimoto>
0.107 

> <ROCS_RefTversky>
0.808 

> <ROCS_RefColorTversky>
0.221 

> <ROCS_RefTverskyCombo>
1.029 

> <ROCS_FitTversky>
0.753 

> <ROCS_FitColorTversky>
0.171 

> <ROCS_FitTverskyCombo>
0.924 

> <ROCS_ColorScore>
-2.025

> <ROCS_Overlap>
1347.172

> <ROCS_Rank>
142                 

$$$$
ligprep_h3d.sdf:749_1817
  -OEChem-08212117123D

 71 76  0     1  0  0  0  0  0999 V2000
  -16.7841   -5.9883  -26.3909 C   0  0  0  0  0  0  0  0  0  0  0  0
  -22.9436   -4.3310  -28.8553 C   0  0  0  0  0  0  0  0  0  0  0  0
  -20.6837   -4.4592  -25.3701 C   0  0  0  0  0  0  0  0  0  0  0  0
  -16.6499   -4.5938  -26.5289 C   0  0  0  0  0  0  0  0  0  0  0  0
  -18.8916   -5.7711  -36.6526 C   0  0  0  0  0  0  0  0  0  0  0  0
  -20.8226   -4.6629  -27.7751 C   0  0  0  0  0  0  0  0  0  0  0  0
  -22.3585   -4.5717  -30.1009 C   0  0  0  0  0  0  0  0  0  0  0  0
  -20.2339   -4.9050  -29.0279 C   0  0  0  0  0  0  0  0  0  0  0  0
  -22.1993   -4.3706  -27.6794 C   0  0  0  0  0  0  0  0  0  0  0  0
  -20.0729   -4.7027  -26.5918 C   0  0  0  0  0  0  0  0  0  0  0  0
  -21.0020   -4.8591  -30.1877 C   0  0  0  0  0  0  0  0  0  0  0  0
  -22.0357   -4.1819  -25.3767 C   0  0  0  0  0  0  0  0  0  0  0  0
  -19.3991   -6.1386  -35.3985 C   0  0  0  0  0  0  0  0  0  0  0  0
  -18.1403   -6.2051  -26.3982 C   0  0  0  0  0  0  0  0  0  0  0  0
  -22.7367   -3.9183  -24.1316 C   0  0  0  0  0  0  0  0  0  0  0  0
  -19.1447   -6.6166  -32.8981 C   0  0  0  0  0  0  0  0  0  0  0  0
  -19.9386   -4.3370  -33.7230 C   0  0  0  0  0  0  0  0  0  0  0  0
  -20.3649   -6.4542  -31.9880 C   0  0  0  0  0  0  0  0  0  0  0  0
  -19.9059   -3.9871  -32.2363 C   0  0  0  0  0  0  0  0  0  0  0  0
  -24.4318   -4.8125  -21.7048 C   0  0  0  0  0  0  0  0  0  0  0  0
  -26.8709   -4.6281  -21.6825 C   0  0  0  0  0  0  0  0  0  0  0  0
  -19.0746   -5.5703  -34.0278 C   0  0  0  0  0  0  0  0  0  0  0  0
  -24.9204   -4.0569  -22.9265 C   0  0  2  0  0  0  0  0  0  0  0  0
  -26.3348   -4.5821  -23.0990 C   0  0  1  0  0  0  0  0  0  0  0  0
  -23.2197   -4.5139  -31.3211 C   0  0  0  0  0  0  0  0  0  0  0  0
  -18.7773   -5.2227  -29.2096 C   0  0  0  0  0  0  0  0  0  0  0  0
  -18.9126   -7.4583  -26.2883 C   0  0  0  0  0  0  0  0  0  0  0  0
  -17.8269   -3.9688  -26.6176 N   0  0  0  0  0  0  0  0  0  0  0  0
  -19.4452   -6.5273  -37.6048 N   0  0  0  0  0  0  0  0  0  0  0  0
  -22.7948   -4.1338  -26.4953 N   0  0  0  0  0  0  0  0  0  0  0  0
  -20.2817   -7.1314  -35.5404 N   0  0  0  0  0  0  0  0  0  0  0  0
  -20.2557   -7.3071  -36.8712 N   0  0  0  0  0  0  0  0  0  0  0  0
  -18.7137   -4.9752  -26.5351 N   0  0  0  0  0  0  0  0  0  0  0  0
  -20.4247   -5.0985  -31.4335 N   0  0  0  0  0  0  0  0  0  0  0  0
  -24.0899   -4.2742  -24.0750 N   0  0  0  0  0  0  0  0  0  0  0  0
  -25.6552   -4.9023  -20.8362 N   0  3  0  0  0  0  0  0  0  0  0  0
  -22.1484   -3.3802  -23.1760 O   0  0  0  0  0  0  0  0  0  0  0  0
  -26.2990   -5.8513  -23.5878 F   0  0  0  0  0  0  0  0  0  0  0  0
  -16.0048   -6.7308  -26.2995 H   0  0  0  0  0  0  0  0  0  0  0  0
  -24.0082   -4.1055  -28.8029 H   0  0  0  0  0  0  0  0  0  0  0  0
  -20.1255   -4.4828  -24.4384 H   0  0  0  0  0  0  0  0  0  0  0  0
  -15.7433   -4.0071  -26.5688 H   0  0  0  0  0  0  0  0  0  0  0  0
  -18.1682   -5.0144  -36.9181 H   0  0  0  0  0  0  0  0  0  0  0  0
  -18.2265   -6.5637  -32.2822 H   0  0  0  0  0  0  0  0  0  0  0  0
  -19.1444   -7.6380  -33.3282 H   0  0  0  0  0  0  0  0  0  0  0  0
  -20.9772   -4.5135  -34.0345 H   0  0  0  0  0  0  0  0  0  0  0  0
  -19.5836   -3.4767  -34.3045 H   0  0  0  0  0  0  0  0  0  0  0  0
  -21.2716   -6.6739  -32.5737 H   0  0  0  0  0  0  0  0  0  0  0  0
  -20.3233   -7.1919  -31.1703 H   0  0  0  0  0  0  0  0  0  0  0  0
  -18.8748   -3.7537  -31.9280 H   0  0  0  0  0  0  0  0  0  0  0  0
  -20.5054   -3.0787  -32.0731 H   0  0  0  0  0  0  0  0  0  0  0  0
  -24.1332   -5.8421  -21.9286 H   0  0  0  0  0  0  0  0  0  0  0  0
  -23.6477   -4.2959  -21.1451 H   0  0  0  0  0  0  0  0  0  0  0  0
  -27.2644   -3.6616  -21.3551 H   0  0  0  0  0  0  0  0  0  0  0  0
  -27.5900   -5.4319  -21.5084 H   0  0  0  0  0  0  0  0  0  0  0  0
  -18.0056   -5.2187  -34.1054 H   0  0  0  0  0  0  0  0  0  0  0  0
  -24.9399   -2.9786  -22.7208 H   0  0  0  0  0  0  0  0  0  0  0  0
  -26.9485   -3.9722  -23.7675 H   0  0  0  0  0  0  0  0  0  0  0  0
  -23.2327   -3.4964  -31.7277 H   0  0  0  0  0  0  0  0  0  0  0  0
  -22.8526   -5.1967  -32.0967 H   0  0  0  0  0  0  0  0  0  0  0  0
  -24.2497   -4.8133  -31.0925 H   0  0  0  0  0  0  0  0  0  0  0  0
  -18.6237   -6.3039  -29.1579 H   0  0  0  0  0  0  0  0  0  0  0  0
  -18.4181   -4.8575  -30.1762 H   0  0  0  0  0  0  0  0  0  0  0  0
  -18.1752   -4.7396  -28.4342 H   0  0  0  0  0  0  0  0  0  0  0  0
  -19.1424   -7.6923  -25.2359 H   0  0  0  0  0  0  0  0  0  0  0  0
  -19.8688   -7.4044  -26.8362 H   0  0  0  0  0  0  0  0  0  0  0  0
  -18.3670   -8.3189  -26.7117 H   0  0  0  0  0  0  0  0  0  0  0  0
  -20.8343   -8.0129  -37.3123 H   0  0  0  0  0  0  0  0  0  0  0  0
  -24.5377   -4.6521  -24.9035 H   0  0  0  0  0  0  0  0  0  0  0  0
  -25.7151   -5.8308  -20.3960 H   0  0  0  0  0  0  0  0  0  0  0  0
  -25.6013   -4.2187  -20.0685 H   0  0  0  0  0  0  0  0  0  0  0  0
  1  4  1  0  0  0  0
  1 14  2  0  0  0  0
  2  7  2  0  0  0  0
  2  9  1  0  0  0  0
  3 10  1  0  0  0  0
  3 12  2  0  0  0  0
  4 28  2  0  0  0  0
  5 13  1  0  0  0  0
  5 29  2  0  0  0  0
  6  8  1  0  0  0  0
  6  9  1  0  0  0  0
  6 10  2  0  0  0  0
  7 11  1  0  0  0  0
  7 25  1  0  0  0  0
  8 11  2  0  0  0  0
  8 26  1  0  0  0  0
  9 30  2  0  0  0  0
 10 33  1  0  0  0  0
 11 34  1  0  0  0  0
 12 15  1  0  0  0  0
 12 30  1  0  0  0  0
 13 22  1  0  0  0  0
 13 31  2  0  0  0  0
 14 27  1  0  0  0  0
 14 33  1  0  0  0  0
 15 35  1  0  0  0  0
 15 37  2  0  0  0  0
 16 18  1  0  0  0  0
 16 22  1  0  0  0  0
 17 19  1  0  0  0  0
 17 22  1  0  0  0  0
 18 34  1  0  0  0  0
 19 34  1  0  0  0  0
 20 23  1  0  0  0  0
 20 36  1  0  0  0  0
 21 24  1  0  0  0  0
 21 36  1  0  0  0  0
 23 24  1  0  0  0  0
 23 35  1  0  0  0  0
 24 38  1  0  0  0  0
 28 33  1  0  0  0  0
 29 32  1  0  0  0  0
 31 32  1  0  0  0  0
  1 39  1  0  0  0  0
  2 40  1  0  0  0  0
  3 41  1  0  0  0  0
  4 42  1  0  0  0  0
  5 43  1  0  0  0  0
 16 44  1  0  0  0  0
 16 45  1  0  0  0  0
 17 46  1  0  0  0  0
 17 47  1  0  0  0  0
 18 48  1  0  0  0  0
 18 49  1  0  0  0  0
 19 50  1  0  0  0  0
 19 51  1  0  0  0  0
 20 52  1  0  0  0  0
 20 53  1  0  0  0  0
 21 54  1  0  0  0  0
 21 55  1  0  0  0  0
 22 56  1  0  0  0  0
 23 57  1  0  0  0  0
 24 58  1  0  0  0  0
 25 59  1  0  0  0  0
 25 60  1  0  0  0  0
 25 61  1  0  0  0  0
 26 62  1  0  0  0  0
 26 63  1  0  0  0  0
 26 64  1  0  0  0  0
 27 65  1  0  0  0  0
 27 66  1  0  0  0  0
 27 67  1  0  0  0  0
 32 68  1  0  0  0  0
 35 69  1  0  0  0  0
 36 70  1  0  0  0  0
 36 71  1  0  0  0  0
M  CHG  1  36   1
M  END
> <SMILES>
Cc1cc2nc(cc(c2c(c1N1CCC(CC1)c1cnn[nH]1)C)-n1nccc1C)C(=O)N[C@@H]1CNC[C@@H]1F

> <FORMATTED_ID>
H3D-005028

> <MOLFORMULA>
C27H32FN9O

> <Exact Mass>
517.27

> <XLogP>
2.2

> <TPSA_NOPS>
116.7

> <s_m_source_file>
ligprep_h3d.sdf

> <i_m_source_file_index>
749

> <i_lp_mmshare_version>
55123

> <i_f3d_flags>
0

> <s_epik_input>
W25IXTFubltjSF1jMVtDSF0oW0NIMl1bQ0gyXTIpW0NIMl1bQ0gyXU4yYyhjKFtDSDNdKVtjSF0zKWMoW0NIM10pYyhjMzQpYygtbjVuW2NIXVtjSF1jNVtDSDNdKVtjSF1jKG40KUMoPU8pW05IXVtDQEBIXTZbQ0gyXVtOSF1bQ0gyXVtDQEBIXTZG

> <s_epik_cmdline>
J2VwaWtfcHl0aG9uJywgJy1waHQnLCAnMC41JywgJy1waCcsICc3LjUnLCAnLXRuJywgJzgnLCAnLW1hJywgJzUwMCcsICctaW1hZScsICc8aW5maWxlLm1hZT4nLCAnLW9tYWUnLCAnPG91dGZpbGUubWFlPic=

> <r_lp_tautomer_probability>
0.652348

> <r_epik_Ionization_Penalty>
0.0803535

> <r_epik_Ionization_Penalty_Charging>
0.0139022

> <r_epik_Ionization_Penalty_Neutral>
0.0664512

> <r_epik_State_Penalty>
0.0677801

> <r_epik_Charging_Adjusted_Penalty>
0.0816823

> <i_epik_Tot_Q>
1

> <i_epik_Tot_abs_Q>
1

> <s_lp_Force_Field>
S-OPLS

> <r_lp_Energy>
72.755

> <b_lp_Chiralities_Consistent>
1

> <s_lp_Variant>
ligprep_h3d.sdf:749-1

> <ROCS_ShapeQuery>
_7L13

> <ROCS_TanimotoCombo>
0.733 

> <ROCS_ShapeTanimoto>
0.641 

> <ROCS_ColorTanimoto>
0.092 

> <ROCS_RefTversky>
0.808 

> <ROCS_RefColorTversky>
0.217 

> <ROCS_RefTverskyCombo>
1.025 

> <ROCS_FitTversky>
0.757 

> <ROCS_FitColorTversky>
0.137 

> <ROCS_FitTverskyCombo>
0.894 

> <ROCS_ColorScore>
-2.021

> <ROCS_Overlap>
1346.476

> <ROCS_Rank>
143                 

$$$$
ligprep_h3d.sdf:413_315
  -OEChem-08212117123D

 63 68  0     1  0  0  0  0  0999 V2000
  -21.0162   -5.1794  -29.4911 C   0  0  0  0  0  0  0  0  0  0  0  0
  -21.7630   -4.3973  -30.3747 C   0  0  0  0  0  0  0  0  0  0  0  0
  -21.1238   -4.9279  -28.1022 C   0  0  0  0  0  0  0  0  0  0  0  0
  -21.9888   -3.9412  -27.5724 C   0  0  0  0  0  0  0  0  0  0  0  0
  -22.5778   -3.4158  -29.8546 C   0  0  0  0  0  0  0  0  0  0  0  0
  -22.7193   -3.1523  -28.4919 C   0  0  0  0  0  0  0  0  0  0  0  0
  -21.9530   -4.2889  -31.7649 C   0  0  0  0  0  0  0  0  0  0  0  0
  -18.9027   -3.8886  -26.2309 C   0  0  0  0  0  0  0  0  0  0  0  0
  -19.2889   -6.0846  -24.9941 C   0  0  0  0  0  0  0  0  0  0  0  0
  -17.0893   -5.2748  -25.8175 C   0  0  0  0  0  0  0  0  0  0  0  0
  -19.0940   -6.9433  -36.4898 C   0  0  0  0  0  0  0  0  0  0  0  0
  -20.2939   -5.7745  -27.1746 C   0  0  0  0  0  0  0  0  0  0  0  0
  -19.9728   -6.8576  -33.5233 C   0  0  0  0  0  0  0  0  0  0  0  0
  -20.8907   -6.4824  -32.3598 C   0  0  0  0  0  0  0  0  0  0  0  0
  -20.9128   -4.7116  -34.0103 C   0  0  0  0  0  0  0  0  0  0  0  0
  -23.0309   -2.7691  -25.6429 C   0  0  0  0  0  0  0  0  0  0  0  0
  -21.2185   -4.4745  -25.2257 C   0  0  2  0  0  0  0  0  0  0  0  0
  -20.5315   -6.0351  -34.6756 C   0  0  1  0  0  0  0  0  0  0  0  0
  -23.4077   -3.0725  -24.1898 C   0  0  1  0  0  0  0  0  0  0  0  0
  -21.0405   -3.5372  -23.9952 C   0  0  2  0  0  0  0  0  0  0  0  0
  -19.9055   -5.0136  -25.8829 C   0  0  2  0  0  0  0  0  0  0  0  0
  -18.1446   -6.5490  -37.5720 C   0  0  0  0  0  0  0  0  0  0  0  0
  -24.4166   -4.2131  -24.0704 C   0  0  0  0  0  0  0  0  0  0  0  0
  -20.0908   -4.0227  -22.9074 C   0  0  0  0  0  0  0  0  0  0  0  0
  -22.8137   -3.3178  -32.0847 N   0  0  0  0  0  0  0  0  0  0  0  0
  -17.6486   -4.2659  -26.4866 N   0  5  0  0  0  0  0  0  0  0  0  0
  -17.9094   -6.1012  -25.0513 N   0  0  0  0  0  0  0  0  0  0  0  0
  -22.0936   -3.7572  -26.1915 N   0  0  3  0  0  0  0  0  0  0  0  0
  -21.2998   -5.1110  -32.6582 N   0  0  0  0  0  0  0  0  0  0  0  0
  -19.6039   -5.8798  -35.7575 N   0  0  0  0  0  0  0  0  0  0  0  0
  -19.2864   -2.7278  -26.3733 O   0  0  0  0  0  0  0  0  0  0  0  0
  -19.9418   -6.9038  -24.3513 O   0  0  0  0  0  0  0  0  0  0  0  0
  -15.8807   -5.5198  -25.8623 O   0  0  0  0  0  0  0  0  0  0  0  0
  -19.3575   -8.1279  -36.3192 O   0  0  0  0  0  0  0  0  0  0  0  0
  -23.2064   -2.7648  -30.8714 O   0  0  0  0  0  0  0  0  0  0  0  0
  -22.3016   -3.3557  -23.3378 O   0  0  0  0  0  0  0  0  0  0  0  0
  -23.4620   -2.0994  -28.1296 F   0  0  0  0  0  0  0  0  0  0  0  0
  -20.3578   -5.9595  -29.8625 H   0  0  0  0  0  0  0  0  0  0  0  0
  -20.8763   -6.6750  -26.9359 H   0  0  0  0  0  0  0  0  0  0  0  0
  -19.3908   -6.1181  -27.6960 H   0  0  0  0  0  0  0  0  0  0  0  0
  -18.9422   -6.5609  -33.2914 H   0  0  0  0  0  0  0  0  0  0  0  0
  -19.9874   -7.9322  -33.7288 H   0  0  0  0  0  0  0  0  0  0  0  0
  -21.7741   -7.1317  -32.3356 H   0  0  0  0  0  0  0  0  0  0  0  0
  -20.3667   -6.5613  -31.4004 H   0  0  0  0  0  0  0  0  0  0  0  0
  -20.0601   -4.0228  -33.9548 H   0  0  0  0  0  0  0  0  0  0  0  0
  -21.7343   -4.2182  -34.5427 H   0  0  0  0  0  0  0  0  0  0  0  0
  -23.9427   -2.7942  -26.2745 H   0  0  0  0  0  0  0  0  0  0  0  0
  -22.6957   -1.7212  -25.6881 H   0  0  0  0  0  0  0  0  0  0  0  0
  -21.8127   -5.3397  -24.8901 H   0  0  0  0  0  0  0  0  0  0  0  0
  -21.4285   -6.5196  -35.0806 H   0  0  0  0  0  0  0  0  0  0  0  0
  -23.9355   -2.1535  -23.7562 H   0  0  0  0  0  0  0  0  0  0  0  0
  -20.6874   -2.5380  -24.3079 H   0  0  0  0  0  0  0  0  0  0  0  0
  -17.0999   -6.5153  -37.2233 H   0  0  0  0  0  0  0  0  0  0  0  0
  -18.1477   -7.2599  -38.4138 H   0  0  0  0  0  0  0  0  0  0  0  0
  -18.3305   -5.5623  -38.0257 H   0  0  0  0  0  0  0  0  0  0  0  0
  -23.9873   -5.1339  -24.4656 H   0  0  0  0  0  0  0  0  0  0  0  0
  -25.3187   -3.9736  -24.6337 H   0  0  0  0  0  0  0  0  0  0  0  0
  -24.6831   -4.3676  -23.0247 H   0  0  0  0  0  0  0  0  0  0  0  0
  -20.3947   -5.0105  -22.5607 H   0  0  0  0  0  0  0  0  0  0  0  0
  -20.1054   -3.3321  -22.0643 H   0  0  0  0  0  0  0  0  0  0  0  0
  -19.0750   -4.0822  -23.2986 H   0  0  0  0  0  0  0  0  0  0  0  0
  -17.4411   -6.7911  -24.4716 H   0  0  0  0  0  0  0  0  0  0  0  0
  -19.3018   -4.9358  -36.0027 H   0  0  0  0  0  0  0  0  0  0  0  0
  1  2  2  0  0  0  0
  1  3  1  0  0  0  0
  2  5  1  0  0  0  0
  2  7  1  0  0  0  0
  3  4  2  0  0  0  0
  3 12  1  0  0  0  0
  4  6  1  0  0  0  0
  4 28  1  0  0  0  0
  5  6  2  0  0  0  0
  5 35  1  0  0  0  0
  6 37  1  0  0  0  0
  7 25  2  0  0  0  0
  7 29  1  0  0  0  0
  8 21  1  0  0  0  0
  8 26  1  0  0  0  0
  8 31  2  0  0  0  0
  9 21  1  0  0  0  0
  9 27  1  0  0  0  0
  9 32  2  0  0  0  0
 10 26  1  0  0  0  0
 10 27  1  0  0  0  0
 10 33  2  0  0  0  0
 11 22  1  0  0  0  0
 11 30  1  0  0  0  0
 11 34  2  0  0  0  0
 12 21  1  0  0  0  0
 13 14  1  0  0  0  0
 13 18  1  0  0  0  0
 14 29  1  0  0  0  0
 15 18  1  0  0  0  0
 15 29  1  0  0  0  0
 16 19  1  0  0  0  0
 16 28  1  0  0  0  0
 17 20  1  0  0  0  0
 17 21  1  0  0  0  0
 17 28  1  0  0  0  0
 18 30  1  0  0  0  0
 19 23  1  0  0  0  0
 19 36  1  0  0  0  0
 20 24  1  0  0  0  0
 20 36  1  0  0  0  0
 25 35  1  0  0  0  0
  1 38  1  0  0  0  0
 12 39  1  0  0  0  0
 12 40  1  0  0  0  0
 13 41  1  0  0  0  0
 13 42  1  0  0  0  0
 14 43  1  0  0  0  0
 14 44  1  0  0  0  0
 15 45  1  0  0  0  0
 15 46  1  0  0  0  0
 16 47  1  0  0  0  0
 16 48  1  0  0  0  0
 17 49  1  0  0  0  0
 18 50  1  0  0  0  0
 19 51  1  0  0  0  0
 20 52  1  0  0  0  0
 22 53  1  0  0  0  0
 22 54  1  0  0  0  0
 22 55  1  0  0  0  0
 23 56  1  0  0  0  0
 23 57  1  0  0  0  0
 23 58  1  0  0  0  0
 24 59  1  0  0  0  0
 24 60  1  0  0  0  0
 24 61  1  0  0  0  0
 27 62  1  0  0  0  0
 30 63  1  0  0  0  0
M  CHG  1  26  -1
M  END
> <SMILES>
CC1CN2C(C(C)O1)C1(Cc3cc4c(noc4c(c32)F)N2CC[C@@H](C2)NC(=O)C)C(=O)NC(=O)NC1=O

> <FORMATTED_ID>
H3D-003834

> <MOLFORMULA>
C24H27FN6O6

> <Exact Mass>
514.2

> <XLogP>
0.23

> <TPSA_NOPS>
146.4

> <s_m_source_file>
ligprep_h3d.sdf

> <i_m_source_file_index>
413

> <i_lp_mmshare_version>
55123

> <i_f3d_flags>
0

> <s_epik_input>
Tz1DMVtOSF1DKD1PKVtOSF1DKD1PKUMxMltDQEBIXTNOKFtDSDJdW0NAQEhdKFtDSDNdKU9bQ0BIXTNbQ0gzXSljNGMoW0NIMl0yKVtjSF1jNWMoYzRGKW9uYzVONltDSDJdW0NIMl1bQ0BASF0oW0NIMl02KVtOSF1DKD1PKVtDSDNd

> <s_epik_cmdline>
J2VwaWtfcHl0aG9uJywgJy1waHQnLCAnMC41JywgJy1waCcsICc3LjUnLCAnLXRuJywgJzgnLCAnLW1hJywgJzUwMCcsICctaW1hZScsICc8aW5maWxlLm1hZT4nLCAnLW9tYWUnLCAnPG91dGZpbGUubWFlPic=

> <r_lp_tautomer_probability>
1

> <r_epik_Ionization_Penalty>
0.455389

> <r_epik_Ionization_Penalty_Charging>
0.455373

> <r_epik_Ionization_Penalty_Neutral>
1.5337e-05

> <r_epik_State_Penalty>
0.458483

> <r_epik_Charging_Adjusted_Penalty>
0.913857

> <i_epik_Tot_Q>
-1

> <i_epik_Tot_abs_Q>
1

> <s_lp_Force_Field>
S-OPLS

> <r_lp_Energy>
51.279

> <b_lp_Chiralities_Consistent>
1

> <s_lp_Variant>
ligprep_h3d.sdf:413-2

> <ROCS_ShapeQuery>
_7L13

> <ROCS_TanimotoCombo>
0.777 

> <ROCS_ShapeTanimoto>
0.652 

> <ROCS_ColorTanimoto>
0.125 

> <ROCS_RefTversky>
0.808 

> <ROCS_RefColorTversky>
0.297 

> <ROCS_RefTverskyCombo>
1.105 

> <ROCS_FitTversky>
0.772 

> <ROCS_FitColorTversky>
0.177 

> <ROCS_FitTverskyCombo>
0.949 

> <ROCS_ColorScore>
-2.777

> <ROCS_Overlap>
1344.951

> <ROCS_Rank>
144                 

$$$$
ligprep_h3d.sdf:5310_1625
  -OEChem-08212117123D

 73 79  0     0  0  0  0  0  0999 V2000
  -20.6568   -7.2156  -35.5852 C   0  0  0  0  0  0  0  0  0  0  0  0
  -21.1908   -7.6167  -34.3607 C   0  0  0  0  0  0  0  0  0  0  0  0
  -19.6414   -6.2600  -35.6239 C   0  0  0  0  0  0  0  0  0  0  0  0
  -20.7094   -7.0622  -33.1747 C   0  0  0  0  0  0  0  0  0  0  0  0
  -19.1600   -5.7055  -34.4379 C   0  0  0  0  0  0  0  0  0  0  0  0
  -22.6482   -4.1936  -29.1559 C   0  0  0  0  0  0  0  0  0  0  0  0
  -19.8456   -4.4549  -29.2478 C   0  0  0  0  0  0  0  0  0  0  0  0
  -27.4708   -4.3500  -24.2884 C   0  0  0  0  0  0  0  0  0  0  0  0
  -14.7447   -6.1680  -24.7545 C   0  0  0  0  0  0  0  0  0  0  0  0
  -14.6761   -4.9490  -25.3868 C   0  0  0  0  0  0  0  0  0  0  0  0
  -21.9031   -4.3169  -27.9894 C   0  0  0  0  0  0  0  0  0  0  0  0
  -19.6940   -6.1066  -33.2133 C   0  0  0  0  0  0  0  0  0  0  0  0
  -20.5095   -4.4492  -28.0263 C   0  0  0  0  0  0  0  0  0  0  0  0
  -21.9815   -4.2086  -30.3804 C   0  0  0  0  0  0  0  0  0  0  0  0
  -20.5885   -4.3372  -30.4259 C   0  0  0  0  0  0  0  0  0  0  0  0
  -26.5281   -4.2760  -23.2485 C   0  0  0  0  0  0  0  0  0  0  0  0
  -28.5387   -4.9881  -23.7152 C   0  0  0  0  0  0  0  0  0  0  0  0
  -16.7402   -5.7610  -25.4030 C   0  0  0  0  0  0  0  0  0  0  0  0
  -18.1271   -5.7103  -25.7300 C   0  0  0  0  0  0  0  0  0  0  0  0
  -17.7620   -3.5507  -26.7988 C   0  0  0  0  0  0  0  0  0  0  0  0
  -16.4550   -3.5904  -26.4943 C   0  0  0  0  0  0  0  0  0  0  0  0
  -18.6434   -4.6547  -26.4026 C   0  0  0  0  0  0  0  0  0  0  0  0
  -22.8520   -2.8617  -26.1786 C   0  0  0  0  0  0  0  0  0  0  0  0
  -23.5244   -5.2811  -26.2913 C   0  0  0  0  0  0  0  0  0  0  0  0
  -23.4670   -2.8023  -24.7756 C   0  0  0  0  0  0  0  0  0  0  0  0
  -24.0816   -5.1458  -24.8716 C   0  0  0  0  0  0  0  0  0  0  0  0
  -21.0784   -4.6827  -25.8017 C   0  0  0  0  0  0  0  0  0  0  0  0
  -22.3852   -4.2817  -26.5598 C   0  0  0  0  0  0  0  0  0  0  0  0
  -29.8598   -5.3995  -24.2058 C   0  0  0  0  0  0  0  0  0  0  0  0
  -22.9224   -2.7683  -32.0224 C   0  0  0  0  0  0  0  0  0  0  0  0
  -19.1759   -5.5095  -31.9380 C   0  0  0  0  0  0  0  0  0  0  0  0
  -25.1531   -3.6749  -23.2940 C   0  0  0  0  0  0  0  0  0  0  0  0
  -16.0231   -6.6653  -24.7674 N   0  0  0  0  0  0  0  0  0  0  0  0
  -26.9770   -4.8263  -22.1168 N   0  0  0  0  0  0  0  0  0  0  0  0
  -15.9557   -4.6868  -25.8035 N   0  0  0  0  0  0  0  0  0  0  0  0
  -19.9536   -4.5584  -26.7368 N   0  0  0  0  0  0  0  0  0  0  0  0
  -24.5546   -3.7775  -24.6247 N   0  0  0  0  0  0  0  0  0  0  0  0
  -28.2561   -5.2775  -22.4193 O   0  0  0  0  0  0  0  0  0  0  0  0
  -22.6999   -4.0888  -31.5325 O   0  0  0  0  0  0  0  0  0  0  0  0
  -19.9389   -4.3467  -31.6250 O   0  0  0  0  0  0  0  0  0  0  0  0
  -21.0308   -7.6485  -36.5085 H   0  0  0  0  0  0  0  0  0  0  0  0
  -21.9807   -8.3616  -34.3303 H   0  0  0  0  0  0  0  0  0  0  0  0
  -19.2247   -5.9483  -36.5770 H   0  0  0  0  0  0  0  0  0  0  0  0
  -21.1316   -7.3807  -32.2252 H   0  0  0  0  0  0  0  0  0  0  0  0
  -18.3688   -4.9615  -34.4777 H   0  0  0  0  0  0  0  0  0  0  0  0
  -23.7266   -4.0770  -29.1182 H   0  0  0  0  0  0  0  0  0  0  0  0
  -18.7660   -4.5546  -29.3036 H   0  0  0  0  0  0  0  0  0  0  0  0
  -27.3872   -3.9930  -25.3045 H   0  0  0  0  0  0  0  0  0  0  0  0
  -13.9360   -6.7131  -24.2899 H   0  0  0  0  0  0  0  0  0  0  0  0
  -13.8563   -4.2680  -25.5696 H   0  0  0  0  0  0  0  0  0  0  0  0
  -18.7575   -6.5403  -25.4259 H   0  0  0  0  0  0  0  0  0  0  0  0
  -18.1784   -2.7063  -27.3375 H   0  0  0  0  0  0  0  0  0  0  0  0
  -15.7647   -2.8004  -26.7643 H   0  0  0  0  0  0  0  0  0  0  0  0
  -23.6031   -2.5111  -26.9004 H   0  0  0  0  0  0  0  0  0  0  0  0
  -22.0185   -2.1494  -26.2393 H   0  0  0  0  0  0  0  0  0  0  0  0
  -23.1846   -6.3117  -26.4553 H   0  0  0  0  0  0  0  0  0  0  0  0
  -24.3458   -5.1189  -27.0023 H   0  0  0  0  0  0  0  0  0  0  0  0
  -22.6917   -2.9608  -24.0158 H   0  0  0  0  0  0  0  0  0  0  0  0
  -23.8587   -1.7890  -24.6230 H   0  0  0  0  0  0  0  0  0  0  0  0
  -24.9173   -5.8487  -24.7682 H   0  0  0  0  0  0  0  0  0  0  0  0
  -23.3208   -5.4388  -24.1368 H   0  0  0  0  0  0  0  0  0  0  0  0
  -20.9075   -4.0635  -24.9141 H   0  0  0  0  0  0  0  0  0  0  0  0
  -21.1285   -5.7257  -25.4620 H   0  0  0  0  0  0  0  0  0  0  0  0
  -29.8356   -6.4208  -24.6274 H   0  0  0  0  0  0  0  0  0  0  0  0
  -30.6270   -5.3914  -23.4087 H   0  0  0  0  0  0  0  0  0  0  0  0
  -30.2444   -4.7271  -24.9960 H   0  0  0  0  0  0  0  0  0  0  0  0
  -23.5067   -2.8147  -32.9446 H   0  0  0  0  0  0  0  0  0  0  0  0
  -21.9620   -2.2820  -32.2109 H   0  0  0  0  0  0  0  0  0  0  0  0
  -23.4756   -2.1992  -31.2715 H   0  0  0  0  0  0  0  0  0  0  0  0
  -19.2562   -6.2227  -31.1105 H   0  0  0  0  0  0  0  0  0  0  0  0
  -18.1217   -5.2306  -32.0407 H   0  0  0  0  0  0  0  0  0  0  0  0
  -25.1859   -2.6148  -23.0198 H   0  0  0  0  0  0  0  0  0  0  0  0
  -24.4826   -4.1733  -22.5860 H   0  0  0  0  0  0  0  0  0  0  0  0
  1  2  2  0  0  0  0
  1  3  1  0  0  0  0
  2  4  1  0  0  0  0
  3  5  2  0  0  0  0
  4 12  2  0  0  0  0
  5 12  1  0  0  0  0
  6 11  1  0  0  0  0
  6 14  2  0  0  0  0
  7 13  1  0  0  0  0
  7 15  2  0  0  0  0
  8 16  1  0  0  0  0
  8 17  2  0  0  0  0
  9 10  2  0  0  0  0
  9 33  1  0  0  0  0
 10 35  1  0  0  0  0
 11 13  2  0  0  0  0
 11 28  1  0  0  0  0
 12 31  1  0  0  0  0
 13 36  1  0  0  0  0
 14 15  1  0  0  0  0
 14 39  1  0  0  0  0
 15 40  1  0  0  0  0
 16 32  1  0  0  0  0
 16 34  2  0  0  0  0
 17 29  1  0  0  0  0
 17 38  1  0  0  0  0
 18 19  1  0  0  0  0
 18 33  2  0  0  0  0
 18 35  1  0  0  0  0
 19 22  2  0  0  0  0
 20 21  2  0  0  0  0
 20 22  1  0  0  0  0
 21 35  1  0  0  0  0
 22 36  1  0  0  0  0
 23 25  1  0  0  0  0
 23 28  1  0  0  0  0
 24 26  1  0  0  0  0
 24 28  1  0  0  0  0
 25 37  1  0  0  0  0
 26 37  1  0  0  0  0
 27 28  1  0  0  0  0
 27 36  1  0  0  0  0
 30 39  1  0  0  0  0
 31 40  1  0  0  0  0
 32 37  1  0  0  0  0
 34 38  1  0  0  0  0
  1 41  1  0  0  0  0
  2 42  1  0  0  0  0
  3 43  1  0  0  0  0
  4 44  1  0  0  0  0
  5 45  1  0  0  0  0
  6 46  1  0  0  0  0
  7 47  1  0  0  0  0
  8 48  1  0  0  0  0
  9 49  1  0  0  0  0
 10 50  1  0  0  0  0
 19 51  1  0  0  0  0
 20 52  1  0  0  0  0
 21 53  1  0  0  0  0
 23 54  1  0  0  0  0
 23 55  1  0  0  0  0
 24 56  1  0  0  0  0
 24 57  1  0  0  0  0
 25 58  1  0  0  0  0
 25 59  1  0  0  0  0
 26 60  1  0  0  0  0
 26 61  1  0  0  0  0
 27 62  1  0  0  0  0
 27 63  1  0  0  0  0
 29 64  1  0  0  0  0
 29 65  1  0  0  0  0
 29 66  1  0  0  0  0
 30 67  1  0  0  0  0
 30 68  1  0  0  0  0
 30 69  1  0  0  0  0
 31 70  1  0  0  0  0
 31 71  1  0  0  0  0
 32 72  1  0  0  0  0
 32 73  1  0  0  0  0
M  END
> <SMILES>
COc1cc2c(cc1OCc1ccccc1)N(CC12CCN(CC1)Cc1cc(on1)C)c1ccn2ccnc2c1

> <FORMATTED_ID>
H3D-014313

> <MOLFORMULA>
C32H33N5O3

> <Exact Mass>
535.26

> <XLogP>
6.01

> <TPSA_NOPS>
68.6

> <s_m_source_file>
ligprep_h3d.sdf

> <i_m_source_file_index>
5310

> <i_lp_mmshare_version>
55123

> <i_f3d_flags>
0

> <s_epik_input>
W2NIXTFbY0hdW2NIXVtjSF1bY0hdYzFbQ0gyXU9jKGMoW2NIXTIpT1tDSDNdKVtjSF1jKE4oW0NIMl0zKWMoW2NIXVtjSF00KVtjSF1jKG40NSluW2NIXVtjSF01KWMyQzM2W0NIMl1bQ0gyXU4oW0NIMl1bQ0gyXTYpW0NIMl1jN1tjSF1jKG9uNylbQ0gzXQ==

> <s_epik_cmdline>
J2VwaWtfcHl0aG9uJywgJy1waHQnLCAnMC41JywgJy1waCcsICc3LjUnLCAnLXRuJywgJzgnLCAnLW1hJywgJzUwMCcsICctaW1hZScsICc8aW5maWxlLm1hZT4nLCAnLW9tYWUnLCAnPG91dGZpbGUubWFlPic=

> <r_lp_tautomer_probability>
1

> <r_epik_Ionization_Penalty>
0.627268

> <r_epik_Ionization_Penalty_Charging>
0.531014

> <r_epik_Ionization_Penalty_Neutral>
0.0962538

> <r_epik_State_Penalty>
0.594765

> <r_epik_Charging_Adjusted_Penalty>
1.12578

> <i_epik_Tot_Q>
0

> <i_epik_Tot_abs_Q>
0

> <s_lp_Force_Field>
S-OPLS

> <r_lp_Energy>
65.9904

> <b_lp_Chiralities_Consistent>
1

> <s_lp_Variant>
ligprep_h3d.sdf:5310-2

> <ROCS_ShapeQuery>
_7L13

> <ROCS_TanimotoCombo>
0.716 

> <ROCS_ShapeTanimoto>
0.617 

> <ROCS_ColorTanimoto>
0.099 

> <ROCS_RefTversky>
0.808 

> <ROCS_RefColorTversky>
0.208 

> <ROCS_RefTverskyCombo>
1.015 

> <ROCS_FitTversky>
0.723 

> <ROCS_FitColorTversky>
0.160 

> <ROCS_FitTverskyCombo>
0.883 

> <ROCS_ColorScore>
-1.900

> <ROCS_Overlap>
1350.064

> <ROCS_Rank>
145                 

$$$$
ligprep_h3d.sdf:1244_606
  -OEChem-08212117123D

 61 66  0     1  0  0  0  0  0999 V2000
  -20.9476   -5.0739  -29.5330 C   0  0  0  0  0  0  0  0  0  0  0  0
  -19.5092   -7.6761  -35.5619 C   0  0  0  0  0  0  0  0  0  0  0  0
  -20.2565   -8.6978  -35.0477 C   0  0  0  0  0  0  0  0  0  0  0  0
  -21.7503   -4.3325  -30.4021 C   0  0  0  0  0  0  0  0  0  0  0  0
  -21.0624   -4.8489  -28.1394 C   0  0  0  0  0  0  0  0  0  0  0  0
  -21.9885   -3.9306  -27.5914 C   0  0  0  0  0  0  0  0  0  0  0  0
  -22.6254   -3.4148  -29.8641 C   0  0  0  0  0  0  0  0  0  0  0  0
  -22.7751   -3.1798  -28.4970 C   0  0  0  0  0  0  0  0  0  0  0  0
  -21.9561   -4.2188  -31.7895 C   0  0  0  0  0  0  0  0  0  0  0  0
  -20.2850   -7.0306  -33.5916 C   0  0  0  0  0  0  0  0  0  0  0  0
  -18.9225   -3.7364  -26.2234 C   0  0  0  0  0  0  0  0  0  0  0  0
  -19.1888   -6.0226  -25.0621 C   0  0  0  0  0  0  0  0  0  0  0  0
  -16.9570   -5.1853  -25.7665 C   0  0  0  0  0  0  0  0  0  0  0  0
  -20.1669   -5.6512  -27.2335 C   0  0  0  0  0  0  0  0  0  0  0  0
  -23.0791   -2.8361  -25.6431 C   0  0  0  0  0  0  0  0  0  0  0  0
  -21.1914   -4.4630  -25.2536 C   0  0  2  0  0  0  0  0  0  0  0  0
  -23.4342   -3.1724  -24.1920 C   0  0  1  0  0  0  0  0  0  0  0  0
  -21.0486   -3.5351  -24.0121 C   0  0  2  0  0  0  0  0  0  0  0  0
  -19.8508   -4.9200  -25.9048 C   0  0  0  0  0  0  0  0  0  0  0  0
  -24.3867   -4.3614  -24.0799 C   0  0  0  0  0  0  0  0  0  0  0  0
  -20.0760   -3.9996  -22.9347 C   0  0  0  0  0  0  0  0  0  0  0  0
  -18.8815   -5.3766  -34.7872 C   0  0  0  0  0  0  0  0  0  0  0  0
  -20.5803   -6.2197  -32.3630 C   0  0  0  0  0  0  0  0  0  0  0  0
  -22.8824   -3.3038  -32.0912 N   0  0  0  0  0  0  0  0  0  0  0  0
  -19.5445   -6.6574  -34.6404 N   0  0  0  0  0  0  0  0  0  0  0  0
  -20.7240   -8.2710  -33.8280 N   0  3  0  0  0  0  0  0  0  0  0  0
  -17.5703   -4.0391  -26.2513 N   0  0  0  0  0  0  0  0  0  0  0  0
  -17.8092   -6.1034  -25.1695 N   0  0  0  0  0  0  0  0  0  0  0  0
  -22.0981   -3.7719  -26.2078 N   0  0  3  0  0  0  0  0  0  0  0  0
  -21.2651   -4.9717  -32.6839 N   0  0  0  0  0  0  0  0  0  0  0  0
  -19.3351   -2.6100  -26.4995 O   0  0  0  0  0  0  0  0  0  0  0  0
  -19.8347   -6.8395  -24.4043 O   0  0  0  0  0  0  0  0  0  0  0  0
  -15.7383   -5.3571  -25.8252 O   0  0  0  0  0  0  0  0  0  0  0  0
  -23.3032   -2.7943  -30.8682 O   0  0  0  0  0  0  0  0  0  0  0  0
  -22.3120   -3.4090  -23.3476 O   0  0  0  0  0  0  0  0  0  0  0  0
  -23.5834   -2.1821  -28.1199 F   0  0  0  0  0  0  0  0  0  0  0  0
  -20.2413   -5.8037  -29.9187 H   0  0  0  0  0  0  0  0  0  0  0  0
  -18.9506   -7.5258  -36.4656 H   0  0  0  0  0  0  0  0  0  0  0  0
  -20.5330   -9.6822  -35.3682 H   0  0  0  0  0  0  0  0  0  0  0  0
  -20.6678   -6.6100  -27.0412 H   0  0  0  0  0  0  0  0  0  0  0  0
  -19.2308   -5.8858  -27.7587 H   0  0  0  0  0  0  0  0  0  0  0  0
  -23.9917   -2.8979  -26.2713 H   0  0  0  0  0  0  0  0  0  0  0  0
  -22.7968   -1.7726  -25.6758 H   0  0  0  0  0  0  0  0  0  0  0  0
  -21.7438   -5.3596  -24.9319 H   0  0  0  0  0  0  0  0  0  0  0  0
  -24.0039   -2.2840  -23.7475 H   0  0  0  0  0  0  0  0  0  0  0  0
  -20.7324   -2.5203  -24.3159 H   0  0  0  0  0  0  0  0  0  0  0  0
  -23.9152   -5.2567  -24.4855 H   0  0  0  0  0  0  0  0  0  0  0  0
  -25.3016   -4.1603  -24.6374 H   0  0  0  0  0  0  0  0  0  0  0  0
  -24.6411   -4.5384  -23.0347 H   0  0  0  0  0  0  0  0  0  0  0  0
  -20.3436   -5.0010  -22.5976 H   0  0  0  0  0  0  0  0  0  0  0  0
  -20.1097   -3.3192  -22.0838 H   0  0  0  0  0  0  0  0  0  0  0  0
  -19.0612   -4.0194  -23.3322 H   0  0  0  0  0  0  0  0  0  0  0  0
  -19.5759   -4.6920  -35.2813 H   0  0  0  0  0  0  0  0  0  0  0  0
  -18.6050   -4.9945  -33.8006 H   0  0  0  0  0  0  0  0  0  0  0  0
  -17.9768   -5.5048  -35.3881 H   0  0  0  0  0  0  0  0  0  0  0  0
  -21.2148   -6.7843  -31.6711 H   0  0  0  0  0  0  0  0  0  0  0  0
  -19.6589   -5.9679  -31.8275 H   0  0  0  0  0  0  0  0  0  0  0  0
  -21.3128   -8.8142  -33.2025 H   0  0  0  0  0  0  0  0  0  0  0  0
  -16.9609   -3.3451  -26.6734 H   0  0  0  0  0  0  0  0  0  0  0  0
  -17.3672   -6.8975  -24.7153 H   0  0  0  0  0  0  0  0  0  0  0  0
  -21.2019   -4.6654  -33.6624 H   0  0  0  0  0  0  0  0  0  0  0  0
  1  4  2  0  0  0  0
  1  5  1  0  0  0  0
  2  3  2  0  0  0  0
  2 25  1  0  0  0  0
  3 26  1  0  0  0  0
  4  7  1  0  0  0  0
  4  9  1  0  0  0  0
  5  6  2  0  0  0  0
  5 14  1  0  0  0  0
  6  8  1  0  0  0  0
  6 29  1  0  0  0  0
  7  8  2  0  0  0  0
  7 34  1  0  0  0  0
  8 36  1  0  0  0  0
  9 24  2  0  0  0  0
  9 30  1  0  0  0  0
 10 23  1  0  0  0  0
 10 25  1  0  0  0  0
 10 26  2  0  0  0  0
 11 19  1  0  0  0  0
 11 27  1  0  0  0  0
 11 31  2  0  0  0  0
 12 19  1  0  0  0  0
 12 28  1  0  0  0  0
 12 32  2  0  0  0  0
 13 27  1  0  0  0  0
 13 28  1  0  0  0  0
 13 33  2  0  0  0  0
 14 19  1  0  0  0  0
 15 17  1  0  0  0  0
 15 29  1  0  0  0  0
 16 18  1  0  0  0  0
 16 19  1  0  0  0  0
 16 29  1  0  0  0  0
 17 20  1  0  0  0  0
 17 35  1  0  0  0  0
 18 21  1  0  0  0  0
 18 35  1  0  0  0  0
 22 25  1  0  0  0  0
 23 30  1  0  0  0  0
 24 34  1  0  0  0  0
  1 37  1  0  0  0  0
  2 38  1  0  0  0  0
  3 39  1  0  0  0  0
 14 40  1  0  0  0  0
 14 41  1  0  0  0  0
 15 42  1  0  0  0  0
 15 43  1  0  0  0  0
 16 44  1  0  0  0  0
 17 45  1  0  0  0  0
 18 46  1  0  0  0  0
 20 47  1  0  0  0  0
 20 48  1  0  0  0  0
 20 49  1  0  0  0  0
 21 50  1  0  0  0  0
 21 51  1  0  0  0  0
 21 52  1  0  0  0  0
 22 53  1  0  0  0  0
 22 54  1  0  0  0  0
 22 55  1  0  0  0  0
 23 56  1  0  0  0  0
 23 57  1  0  0  0  0
 26 58  1  0  0  0  0
 27 59  1  0  0  0  0
 28 60  1  0  0  0  0
 30 61  1  0  0  0  0
M  CHG  1  26   1
M  END
> <SMILES>
CC1CN2C(C(C)O1)C1(Cc3cc4c(noc4c(c32)F)NCc2nccn2C)C(=O)NC(=O)NC1=O

> <FORMATTED_ID>
H3D-008487

> <MOLFORMULA>
C23H24FN7O5

> <Exact Mass>
497.18

> <XLogP>
1.18

> <TPSA_NOPS>
143.9

> <s_m_source_file>
ligprep_h3d.sdf

> <i_m_source_file_index>
1244

> <i_lp_mmshare_version>
55123

> <i_f3d_flags>
0

> <s_epik_input>
Tz1DMVtOSF1DKD1PKVtOSF1DKD1PKUMxMltDQEBIXTNOKFtDSDJdW0NAQEhdKFtDSDNdKU9bQ0BIXTNbQ0gzXSljNGMoW0NIMl0yKVtjSF1jNWMoYzRGKW9uYzVbTkhdW0NIMl1jNm5bY0hdW2NIXW42W0NIM10=

> <s_epik_cmdline>
J2VwaWtfcHl0aG9uJywgJy1waHQnLCAnMC41JywgJy1waCcsICc3LjUnLCAnLXRuJywgJzgnLCAnLW1hJywgJzUwMCcsICctaW1hZScsICc8aW5maWxlLm1hZT4nLCAnLW9tYWUnLCAnPG91dGZpbGUubWFlPic=

> <r_lp_tautomer_probability>
1

> <r_epik_Ionization_Penalty>
0.439322

> <r_epik_Ionization_Penalty_Charging>
0

> <r_epik_Ionization_Penalty_Neutral>
0.439322

> <r_epik_State_Penalty>
0.427976

> <r_epik_Charging_Adjusted_Penalty>
0.427976

> <i_epik_Tot_Q>
1

> <i_epik_Tot_abs_Q>
1

> <s_lp_Force_Field>
S-OPLS

> <r_lp_Energy>
46.1733

> <b_lp_Chiralities_Consistent>
1

> <s_lp_Variant>
ligprep_h3d.sdf:1244-1

> <ROCS_ShapeQuery>
_7L13

> <ROCS_TanimotoCombo>
0.785 

> <ROCS_ShapeTanimoto>
0.661 

> <ROCS_ColorTanimoto>
0.124 

> <ROCS_RefTversky>
0.808 

> <ROCS_RefColorTversky>
0.295 

> <ROCS_RefTverskyCombo>
1.103 

> <ROCS_FitTversky>
0.785 

> <ROCS_FitColorTversky>
0.176 

> <ROCS_FitTverskyCombo>
0.961 

> <ROCS_ColorScore>
-2.761

> <ROCS_Overlap>
1343.155

> <ROCS_Rank>
146                 

$$$$
ligprep_h3d.sdf:973_1860
  -OEChem-08212117123D

 59 64  0     1  0  0  0  0  0999 V2000
  -20.9521   -5.1351  -29.5001 C   0  0  0  0  0  0  0  0  0  0  0  0
  -21.7296   -4.3834  -30.3836 C   0  0  0  0  0  0  0  0  0  0  0  0
  -21.0737   -4.8920  -28.1108 C   0  0  0  0  0  0  0  0  0  0  0  0
  -21.9813   -3.9446  -27.5808 C   0  0  0  0  0  0  0  0  0  0  0  0
  -22.5869   -3.4390  -29.8631 C   0  0  0  0  0  0  0  0  0  0  0  0
  -22.7428   -3.1853  -28.5002 C   0  0  0  0  0  0  0  0  0  0  0  0
  -21.9208   -4.2797  -31.7740 C   0  0  0  0  0  0  0  0  0  0  0  0
  -18.9035   -3.7633  -26.2315 C   0  0  0  0  0  0  0  0  0  0  0  0
  -20.2401   -7.5779  -35.5756 C   0  0  0  0  0  0  0  0  0  0  0  0
  -19.1983   -5.9770  -25.0010 C   0  0  0  0  0  0  0  0  0  0  0  0
  -17.0334   -5.0717  -25.8170 C   0  0  0  0  0  0  0  0  0  0  0  0
  -20.2105   -5.7046  -27.1833 C   0  0  0  0  0  0  0  0  0  0  0  0
  -20.3948   -7.4230  -34.0821 C   0  0  0  0  0  0  0  0  0  0  0  0
  -19.5929   -5.3785  -35.0438 C   0  0  0  0  0  0  0  0  0  0  0  0
  -23.0773   -2.8231  -25.6510 C   0  0  0  0  0  0  0  0  0  0  0  0
  -19.5252   -6.2019  -33.7660 C   0  0  1  0  0  0  0  0  0  0  0  0
  -21.1945   -4.4504  -25.2334 C   0  0  2  0  0  0  0  0  0  0  0  0
  -23.4442   -3.1460  -24.1995 C   0  0  1  0  0  0  0  0  0  0  0  0
  -21.0597   -3.5095  -24.0003 C   0  0  2  0  0  0  0  0  0  0  0  0
  -19.8580   -4.9311  -25.8887 C   0  0  2  0  0  0  0  0  0  0  0  0
  -24.4036   -4.3292  -24.0855 C   0  0  0  0  0  0  0  0  0  0  0  0
  -20.0927   -3.9567  -22.9113 C   0  0  0  0  0  0  0  0  0  0  0  0
  -19.9902   -5.4393  -32.5382 C   0  0  0  0  0  0  0  0  0  0  0  0
  -22.8215   -3.3456  -32.0935 N   0  0  0  0  0  0  0  0  0  0  0  0
  -17.6339   -4.0859  -26.4850 N   0  5  0  0  0  0  0  0  0  0  0  0
  -17.8192   -5.9343  -25.0549 N   0  0  0  0  0  0  0  0  0  0  0  0
  -19.7663   -6.3685  -36.0701 N   0  0  0  0  0  0  0  0  0  0  0  0
  -22.0973   -3.7688  -26.1997 N   0  0  3  0  0  0  0  0  0  0  0  0
  -19.3362   -2.6197  -26.3720 O   0  0  0  0  0  0  0  0  0  0  0  0
  -20.5243   -8.5787  -36.2154 O   0  0  0  0  0  0  0  0  0  0  0  0
  -19.8171   -6.8250  -24.3619 O   0  0  0  0  0  0  0  0  0  0  0  0
  -15.8154   -5.2646  -25.8594 O   0  0  0  0  0  0  0  0  0  0  0  0
  -23.2405   -2.8130  -30.8799 O   0  0  0  0  0  0  0  0  0  0  0  0
  -22.3290   -3.3838  -23.3455 O   0  0  0  0  0  0  0  0  0  0  0  0
  -21.3299   -4.9695  -32.7587 O   0  0  0  0  0  0  0  0  0  0  0  0
  -23.5312   -2.1666  -28.1370 F   0  0  0  0  0  0  0  0  0  0  0  0
  -20.2603   -5.8842  -29.8741 H   0  0  0  0  0  0  0  0  0  0  0  0
  -20.7544   -6.6297  -26.9485 H   0  0  0  0  0  0  0  0  0  0  0  0
  -19.2921   -6.0079  -27.7031 H   0  0  0  0  0  0  0  0  0  0  0  0
  -21.4429   -7.2844  -33.8109 H   0  0  0  0  0  0  0  0  0  0  0  0
  -19.9995   -8.3228  -33.6023 H   0  0  0  0  0  0  0  0  0  0  0  0
  -20.4179   -4.6638  -35.0723 H   0  0  0  0  0  0  0  0  0  0  0  0
  -18.6500   -4.8605  -35.2402 H   0  0  0  0  0  0  0  0  0  0  0  0
  -23.9857   -2.8856  -26.2849 H   0  0  0  0  0  0  0  0  0  0  0  0
  -22.7869   -1.7616  -25.6923 H   0  0  0  0  0  0  0  0  0  0  0  0
  -18.4758   -6.5289  -33.5797 H   0  0  0  0  0  0  0  0  0  0  0  0
  -21.7519   -5.3412  -24.9015 H   0  0  0  0  0  0  0  0  0  0  0  0
  -24.0116   -2.2515  -23.7650 H   0  0  0  0  0  0  0  0  0  0  0  0
  -20.7492   -2.4952  -24.3097 H   0  0  0  0  0  0  0  0  0  0  0  0
  -23.9342   -5.2296  -24.4819 H   0  0  0  0  0  0  0  0  0  0  0  0
  -25.3137   -4.1270  -24.6503 H   0  0  0  0  0  0  0  0  0  0  0  0
  -24.6657   -4.4975  -23.0408 H   0  0  0  0  0  0  0  0  0  0  0  0
  -20.3548   -4.9575  -22.5678 H   0  0  0  0  0  0  0  0  0  0  0  0
  -20.1389   -3.2695  -22.0664 H   0  0  0  0  0  0  0  0  0  0  0  0
  -19.0743   -3.9715  -23.3000 H   0  0  0  0  0  0  0  0  0  0  0  0
  -19.3410   -4.5785  -32.3524 H   0  0  0  0  0  0  0  0  0  0  0  0
  -19.9849   -6.0888  -31.6579 H   0  0  0  0  0  0  0  0  0  0  0  0
  -17.3232   -6.6050  -24.4758 H   0  0  0  0  0  0  0  0  0  0  0  0
  -19.5177   -6.2230  -37.0435 H   0  0  0  0  0  0  0  0  0  0  0  0
  1  2  2  0  0  0  0
  1  3  1  0  0  0  0
  2  5  1  0  0  0  0
  2  7  1  0  0  0  0
  3  4  2  0  0  0  0
  3 12  1  0  0  0  0
  4  6  1  0  0  0  0
  4 28  1  0  0  0  0
  5  6  2  0  0  0  0
  5 33  1  0  0  0  0
  6 36  1  0  0  0  0
  7 24  2  0  0  0  0
  7 35  1  0  0  0  0
  8 20  1  0  0  0  0
  8 25  1  0  0  0  0
  8 29  2  0  0  0  0
  9 13  1  0  0  0  0
  9 27  1  0  0  0  0
  9 30  2  0  0  0  0
 10 20  1  0  0  0  0
 10 26  1  0  0  0  0
 10 31  2  0  0  0  0
 11 25  1  0  0  0  0
 11 26  1  0  0  0  0
 11 32  2  0  0  0  0
 12 20  1  0  0  0  0
 13 16  1  0  0  0  0
 14 16  1  0  0  0  0
 14 27  1  0  0  0  0
 15 18  1  0  0  0  0
 15 28  1  0  0  0  0
 16 23  1  0  0  0  0
 17 19  1  0  0  0  0
 17 20  1  0  0  0  0
 17 28  1  0  0  0  0
 18 21  1  0  0  0  0
 18 34  1  0  0  0  0
 19 22  1  0  0  0  0
 19 34  1  0  0  0  0
 23 35  1  0  0  0  0
 24 33  1  0  0  0  0
  1 37  1  0  0  0  0
 12 38  1  0  0  0  0
 12 39  1  0  0  0  0
 13 40  1  0  0  0  0
 13 41  1  0  0  0  0
 14 42  1  0  0  0  0
 14 43  1  0  0  0  0
 15 44  1  0  0  0  0
 15 45  1  0  0  0  0
 16 46  1  0  0  0  0
 17 47  1  0  0  0  0
 18 48  1  0  0  0  0
 19 49  1  0  0  0  0
 21 50  1  0  0  0  0
 21 51  1  0  0  0  0
 21 52  1  0  0  0  0
 22 53  1  0  0  0  0
 22 54  1  0  0  0  0
 22 55  1  0  0  0  0
 23 56  1  0  0  0  0
 23 57  1  0  0  0  0
 26 58  1  0  0  0  0
 27 59  1  0  0  0  0
M  CHG  1  25  -1
M  END
> <SMILES>
C[C@@H]1CN2[C@H]([C@H](C)O1)C1(Cc3cc4c(noc4c(c32)F)OC[C@@H]2CNC(=O)C2)C(=O)NC(=O)NC1=O

> <FORMATTED_ID>
H3D-006041

> <MOLFORMULA>
C23H24FN5O7

> <Exact Mass>
501.17

> <XLogP>
0.03

> <TPSA_NOPS>
152.4

> <s_m_source_file>
ligprep_h3d.sdf

> <i_m_source_file_index>
973

> <i_lp_mmshare_version>
55123

> <i_f3d_flags>
0

> <s_epik_input>
Tz1DMVtOSF1DKD1PKVtOSF1DKD1PKUMxMltDQEBIXTNOKFtDSDJdW0NAQEhdKFtDSDNdKU9bQ0BIXTNbQ0gzXSljNGMoW0NIMl0yKVtjSF1jNWMoYzRGKW9uYzVPW0NIMl1bQ0BASF02W0NIMl1bTkhdQyg9TylbQ0gyXTY=

> <s_epik_cmdline>
J2VwaWtfcHl0aG9uJywgJy1waHQnLCAnMC41JywgJy1waCcsICc3LjUnLCAnLXRuJywgJzgnLCAnLW1hJywgJzUwMCcsICctaW1hZScsICc8aW5maWxlLm1hZT4nLCAnLW9tYWUnLCAnPG91dGZpbGUubWFlPic=

> <r_lp_tautomer_probability>
1

> <r_epik_Ionization_Penalty>
0.45539

> <r_epik_Ionization_Penalty_Charging>
0.455373

> <r_epik_Ionization_Penalty_Neutral>
1.6792e-05

> <r_epik_State_Penalty>
0.458483

> <r_epik_Charging_Adjusted_Penalty>
0.913857

> <i_epik_Tot_Q>
-1

> <i_epik_Tot_abs_Q>
1

> <s_lp_Force_Field>
S-OPLS

> <r_lp_Energy>
49.059

> <b_lp_Chiralities_Consistent>
1

> <s_lp_Variant>
ligprep_h3d.sdf:973-2

> <ROCS_ShapeQuery>
_7L13

> <ROCS_TanimotoCombo>
0.782 

> <ROCS_ShapeTanimoto>
0.663 

> <ROCS_ColorTanimoto>
0.119 

> <ROCS_RefTversky>
0.808 

> <ROCS_RefColorTversky>
0.294 

> <ROCS_RefTverskyCombo>
1.102 

> <ROCS_FitTversky>
0.788 

> <ROCS_FitColorTversky>
0.166 

> <ROCS_FitTverskyCombo>
0.954 

> <ROCS_ColorScore>
-2.768

> <ROCS_Overlap>
1342.869

> <ROCS_Rank>
147                 

$$$$
ligprep_h3d.sdf:916_1581
  -OEChem-08212117123D

 60 65  0     1  0  0  0  0  0999 V2000
  -20.9245   -5.1175  -29.5020 C   0  0  0  0  0  0  0  0  0  0  0  0
  -21.7154   -4.3813  -30.3863 C   0  0  0  0  0  0  0  0  0  0  0  0
  -21.0500   -4.8762  -28.1121 C   0  0  0  0  0  0  0  0  0  0  0  0
  -21.9755   -3.9466  -27.5825 C   0  0  0  0  0  0  0  0  0  0  0  0
  -22.5897   -3.4527  -29.8662 C   0  0  0  0  0  0  0  0  0  0  0  0
  -22.7499   -3.2015  -28.5032 C   0  0  0  0  0  0  0  0  0  0  0  0
  -21.9085   -4.2819  -31.7767 C   0  0  0  0  0  0  0  0  0  0  0  0
  -19.7548   -6.4678  -36.0349 C   0  0  0  0  0  0  0  0  0  0  0  0
  -18.9203   -3.7544  -26.1900 C   0  0  0  0  0  0  0  0  0  0  0  0
  -19.2099   -6.0259  -25.0056 C   0  0  0  0  0  0  0  0  0  0  0  0
  -16.9673   -5.2093  -25.7000 C   0  0  0  0  0  0  0  0  0  0  0  0
  -20.1670   -5.6733  -27.1895 C   0  0  0  0  0  0  0  0  0  0  0  0
  -19.5825   -5.6042  -34.8092 C   0  0  0  0  0  0  0  0  0  0  0  0
  -20.7170   -7.6384  -34.2332 C   0  0  0  0  0  0  0  0  0  0  0  0
  -23.0765   -2.8241  -25.6560 C   0  0  0  0  0  0  0  0  0  0  0  0
  -19.7765   -6.5916  -33.6542 C   0  0  2  0  0  0  0  0  0  0  0  0
  -21.2017   -4.4573  -25.2320 C   0  0  2  0  0  0  0  0  0  0  0  0
  -23.4462   -3.1421  -24.2045 C   0  0  1  0  0  0  0  0  0  0  0  0
  -21.0643   -3.5163  -23.9998 C   0  0  2  0  0  0  0  0  0  0  0  0
  -19.8582   -4.9291  -25.8664 C   0  0  0  0  0  0  0  0  0  0  0  0
  -24.4064   -4.3243  -24.0874 C   0  0  0  0  0  0  0  0  0  0  0  0
  -20.1037   -3.9742  -22.9088 C   0  0  0  0  0  0  0  0  0  0  0  0
  -20.3161   -5.9367  -32.3946 C   0  0  0  0  0  0  0  0  0  0  0  0
  -22.8269   -3.3651  -32.0966 N   0  0  0  0  0  0  0  0  0  0  0  0
  -17.5697   -4.0651  -26.2029 N   0  0  0  0  0  0  0  0  0  0  0  0
  -17.8299   -6.1158  -25.1002 N   0  0  0  0  0  0  0  0  0  0  0  0
  -20.4089   -7.6270  -35.6361 N   0  0  0  0  0  0  0  0  0  0  0  0
  -22.0962   -3.7717  -26.2017 N   0  0  3  0  0  0  0  0  0  0  0  0
  -19.4106   -6.1645  -37.1668 O   0  0  0  0  0  0  0  0  0  0  0  0
  -19.3241   -2.6289  -26.4823 O   0  0  0  0  0  0  0  0  0  0  0  0
  -19.8662   -6.8317  -24.3445 O   0  0  0  0  0  0  0  0  0  0  0  0
  -15.7491   -5.3887  -25.7461 O   0  0  0  0  0  0  0  0  0  0  0  0
  -23.2553   -2.8396  -30.8831 O   0  0  0  0  0  0  0  0  0  0  0  0
  -22.3326   -3.3756  -23.3477 O   0  0  0  0  0  0  0  0  0  0  0  0
  -21.3049   -4.9611  -32.7611 O   0  0  0  0  0  0  0  0  0  0  0  0
  -23.5568   -2.1960  -28.1444 F   0  0  0  0  0  0  0  0  0  0  0  0
  -20.2188   -5.8540  -29.8758 H   0  0  0  0  0  0  0  0  0  0  0  0
  -20.6754   -6.6270  -26.9908 H   0  0  0  0  0  0  0  0  0  0  0  0
  -19.2279   -5.9192  -27.7038 H   0  0  0  0  0  0  0  0  0  0  0  0
  -18.5868   -5.1534  -34.7908 H   0  0  0  0  0  0  0  0  0  0  0  0
  -20.3475   -4.8211  -34.8237 H   0  0  0  0  0  0  0  0  0  0  0  0
  -20.5410   -8.6370  -33.8246 H   0  0  0  0  0  0  0  0  0  0  0  0
  -21.7733   -7.3751  -34.1177 H   0  0  0  0  0  0  0  0  0  0  0  0
  -23.9843   -2.8879  -26.2914 H   0  0  0  0  0  0  0  0  0  0  0  0
  -22.7878   -1.7625  -25.6983 H   0  0  0  0  0  0  0  0  0  0  0  0
  -18.8116   -7.0637  -33.4264 H   0  0  0  0  0  0  0  0  0  0  0  0
  -21.7619   -5.3471  -24.9052 H   0  0  0  0  0  0  0  0  0  0  0  0
  -24.0145   -2.2454  -23.7747 H   0  0  0  0  0  0  0  0  0  0  0  0
  -20.7398   -2.5068  -24.3123 H   0  0  0  0  0  0  0  0  0  0  0  0
  -23.9365   -5.2265  -24.4790 H   0  0  0  0  0  0  0  0  0  0  0  0
  -25.3152   -4.1240  -24.6549 H   0  0  0  0  0  0  0  0  0  0  0  0
  -24.6705   -4.4880  -23.0425 H   0  0  0  0  0  0  0  0  0  0  0  0
  -20.3800   -4.9703  -22.5628 H   0  0  0  0  0  0  0  0  0  0  0  0
  -20.1407   -3.2841  -22.0659 H   0  0  0  0  0  0  0  0  0  0  0  0
  -19.0856   -4.0043  -23.2971 H   0  0  0  0  0  0  0  0  0  0  0  0
  -19.5118   -5.4351  -31.8481 H   0  0  0  0  0  0  0  0  0  0  0  0
  -20.7812   -6.6825  -31.7431 H   0  0  0  0  0  0  0  0  0  0  0  0
  -16.9528   -3.3794  -26.6273 H   0  0  0  0  0  0  0  0  0  0  0  0
  -17.3965   -6.9070  -24.6332 H   0  0  0  0  0  0  0  0  0  0  0  0
  -20.6823   -8.3627  -36.2798 H   0  0  0  0  0  0  0  0  0  0  0  0
  1  2  2  0  0  0  0
  1  3  1  0  0  0  0
  2  5  1  0  0  0  0
  2  7  1  0  0  0  0
  3  4  2  0  0  0  0
  3 12  1  0  0  0  0
  4  6  1  0  0  0  0
  4 28  1  0  0  0  0
  5  6  2  0  0  0  0
  5 33  1  0  0  0  0
  6 36  1  0  0  0  0
  7 24  2  0  0  0  0
  7 35  1  0  0  0  0
  8 13  1  0  0  0  0
  8 27  1  0  0  0  0
  8 29  2  0  0  0  0
  9 20  1  0  0  0  0
  9 25  1  0  0  0  0
  9 30  2  0  0  0  0
 10 20  1  0  0  0  0
 10 26  1  0  0  0  0
 10 31  2  0  0  0  0
 11 25  1  0  0  0  0
 11 26  1  0  0  0  0
 11 32  2  0  0  0  0
 12 20  1  0  0  0  0
 13 16  1  0  0  0  0
 14 16  1  0  0  0  0
 14 27  1  0  0  0  0
 15 18  1  0  0  0  0
 15 28  1  0  0  0  0
 16 23  1  0  0  0  0
 17 19  1  0  0  0  0
 17 20  1  0  0  0  0
 17 28  1  0  0  0  0
 18 21  1  0  0  0  0
 18 34  1  0  0  0  0
 19 22  1  0  0  0  0
 19 34  1  0  0  0  0
 23 35  1  0  0  0  0
 24 33  1  0  0  0  0
  1 37  1  0  0  0  0
 12 38  1  0  0  0  0
 12 39  1  0  0  0  0
 13 40  1  0  0  0  0
 13 41  1  0  0  0  0
 14 42  1  0  0  0  0
 14 43  1  0  0  0  0
 15 44  1  0  0  0  0
 15 45  1  0  0  0  0
 16 46  1  0  0  0  0
 17 47  1  0  0  0  0
 18 48  1  0  0  0  0
 19 49  1  0  0  0  0
 21 50  1  0  0  0  0
 21 51  1  0  0  0  0
 21 52  1  0  0  0  0
 22 53  1  0  0  0  0
 22 54  1  0  0  0  0
 22 55  1  0  0  0  0
 23 56  1  0  0  0  0
 23 57  1  0  0  0  0
 25 58  1  0  0  0  0
 26 59  1  0  0  0  0
 27 60  1  0  0  0  0
M  END
> <SMILES>
C[C@@H]1CN2[C@H]([C@H](C)O1)C1(Cc3cc4c(noc4c(c32)F)OC[C@H]2CNC(=O)C2)C(=O)NC(=O)NC1=O

> <FORMATTED_ID>
H3D-005864

> <MOLFORMULA>
C23H24FN5O7

> <Exact Mass>
501.17

> <XLogP>
0.03

> <TPSA_NOPS>
152.4

> <s_m_source_file>
ligprep_h3d.sdf

> <i_m_source_file_index>
916

> <i_lp_mmshare_version>
55123

> <i_f3d_flags>
0

> <s_epik_input>
Tz1DMVtOSF1DKD1PKVtOSF1DKD1PKUMxMltDQEBIXTNOKFtDSDJdW0NAQEhdKFtDSDNdKU9bQ0BIXTNbQ0gzXSljNGMoW0NIMl0yKVtjSF1jNWMoYzRGKW9uYzVPW0NIMl1bQ0BIXTZbQ0gyXVtOSF1DKD1PKVtDSDJdNg==

> <s_epik_cmdline>
J2VwaWtfcHl0aG9uJywgJy1waHQnLCAnMC41JywgJy1waCcsICc3LjUnLCAnLXRuJywgJzgnLCAnLW1hJywgJzUwMCcsICctaW1hZScsICc8aW5maWxlLm1hZT4nLCAnLW9tYWUnLCAnPG91dGZpbGUubWFlPic=

> <r_lp_tautomer_probability>
1

> <r_epik_Ionization_Penalty>
0.369127

> <r_epik_Ionization_Penalty_Charging>
0

> <r_epik_Ionization_Penalty_Neutral>
0.369127

> <r_epik_State_Penalty>
0.366447

> <r_epik_Charging_Adjusted_Penalty>
0.366447

> <i_epik_Tot_Q>
0

> <i_epik_Tot_abs_Q>
0

> <s_lp_Force_Field>
S-OPLS

> <r_lp_Energy>
41.9364

> <b_lp_Chiralities_Consistent>
1

> <s_lp_Variant>
ligprep_h3d.sdf:916-1

> <ROCS_ShapeQuery>
_7L13

> <ROCS_TanimotoCombo>
0.789 

> <ROCS_ShapeTanimoto>
0.665 

> <ROCS_ColorTanimoto>
0.124 

> <ROCS_RefTversky>
0.807 

> <ROCS_RefColorTversky>
0.295 

> <ROCS_RefTverskyCombo>
1.103 

> <ROCS_FitTversky>
0.790 

> <ROCS_FitColorTversky>
0.176 

> <ROCS_FitTverskyCombo>
0.967 

> <ROCS_ColorScore>
-2.763

> <ROCS_Overlap>
1342.251

> <ROCS_Rank>
148                 

$$$$
ligprep_h3d.sdf:5406_665
  -OEChem-08212117123D

 76 82  0     1  0  0  0  0  0999 V2000
  -19.9668   -6.9863  -35.3447 C   0  0  0  0  0  0  0  0  0  0  0  0
  -20.5801   -7.4437  -34.1785 C   0  0  0  0  0  0  0  0  0  0  0  0
  -18.9989   -5.9842  -35.2768 C   0  0  0  0  0  0  0  0  0  0  0  0
  -20.2258   -6.8989  -32.9443 C   0  0  0  0  0  0  0  0  0  0  0  0
  -18.6445   -5.4393  -34.0427 C   0  0  0  0  0  0  0  0  0  0  0  0
  -22.6268   -4.2423  -29.0402 C   0  0  0  0  0  0  0  0  0  0  0  0
  -19.8161   -4.3584  -28.9016 C   0  0  0  0  0  0  0  0  0  0  0  0
  -15.1252   -6.2256  -24.0182 C   0  0  0  0  0  0  0  0  0  0  0  0
  -14.9791   -5.0147  -24.6528 C   0  0  0  0  0  0  0  0  0  0  0  0
  -21.9749   -4.3498  -27.8175 C   0  0  0  0  0  0  0  0  0  0  0  0
  -19.2579   -5.8967  -32.8764 C   0  0  0  0  0  0  0  0  0  0  0  0
  -20.5778   -4.4063  -27.7397 C   0  0  0  0  0  0  0  0  0  0  0  0
  -21.8608   -4.1854  -30.2038 C   0  0  0  0  0  0  0  0  0  0  0  0
  -20.4639   -4.2443  -30.1349 C   0  0  0  0  0  0  0  0  0  0  0  0
  -17.0545   -5.7790  -24.8224 C   0  0  0  0  0  0  0  0  0  0  0  0
  -18.4103   -5.6995  -25.2561 C   0  0  0  0  0  0  0  0  0  0  0  0
  -17.9127   -3.5595  -26.3105 C   0  0  0  0  0  0  0  0  0  0  0  0
  -16.6344   -3.6262  -25.9055 C   0  0  0  0  0  0  0  0  0  0  0  0
  -18.8480   -4.6389  -25.9750 C   0  0  0  0  0  0  0  0  0  0  0  0
  -27.4207   -4.4019  -21.7829 C   0  0  0  0  0  0  0  0  0  0  0  0
  -26.8326   -4.3203  -23.1687 C   0  0  0  0  0  0  0  0  0  0  0  0
  -24.2725   -3.5262  -24.7819 C   0  0  0  0  0  0  0  0  0  0  0  0
  -23.9535   -6.0340  -24.9295 C   0  0  0  0  0  0  0  0  0  0  0  0
  -23.5971   -3.3550  -26.1436 C   0  0  0  0  0  0  0  0  0  0  0  0
  -23.2383   -5.8652  -26.2732 C   0  0  0  0  0  0  0  0  0  0  0  0
  -25.1609   -5.0405  -20.8986 C   0  0  0  0  0  0  0  0  0  0  0  0
  -21.3014   -4.3355  -25.5498 C   0  0  0  0  0  0  0  0  0  0  0  0
  -24.5617   -4.6420  -22.2295 C   0  0  0  0  0  0  0  0  0  0  0  0
  -24.9381   -4.8953  -24.6819 C   0  0  0  0  0  0  0  0  0  0  0  0
  -22.5802   -4.4761  -26.4388 C   0  0  0  0  0  0  0  0  0  0  0  0
  -23.9118   -4.0247  -31.3968 C   0  0  0  0  0  0  0  0  0  0  0  0
  -18.8764   -5.3100  -31.5491 C   0  0  0  0  0  0  0  0  0  0  0  0
  -16.4102   -6.6934  -24.1261 N   0  0  0  0  0  0  0  0  0  0  0  0
  -16.2162   -4.7271  -25.1694 N   0  0  0  0  0  0  0  0  0  0  0  0
  -26.5469   -4.6445  -20.7487 N   0  0  0  0  0  0  0  0  0  0  0  0
  -20.1258   -4.5157  -26.4104 N   0  0  0  0  0  0  0  0  0  0  0  0
  -25.5249   -5.0511  -23.3075 N   0  3  2  0  0  0  0  0  0  0  0  0
  -28.6193   -4.1833  -21.5978 O   0  0  0  0  0  0  0  0  0  0  0  0
  -22.4871   -4.0791  -31.4098 O   0  0  0  0  0  0  0  0  0  0  0  0
  -19.7178   -4.1922  -31.2753 O   0  0  0  0  0  0  0  0  0  0  0  0
  -20.2419   -7.4116  -36.3055 H   0  0  0  0  0  0  0  0  0  0  0  0
  -21.3330   -8.2248  -34.2311 H   0  0  0  0  0  0  0  0  0  0  0  0
  -18.5204   -5.6286  -36.1845 H   0  0  0  0  0  0  0  0  0  0  0  0
  -20.7091   -7.2613  -32.0408 H   0  0  0  0  0  0  0  0  0  0  0  0
  -17.8895   -4.6588  -33.9994 H   0  0  0  0  0  0  0  0  0  0  0  0
  -23.7105   -4.2136  -29.0930 H   0  0  0  0  0  0  0  0  0  0  0  0
  -18.7319   -4.4018  -28.8685 H   0  0  0  0  0  0  0  0  0  0  0  0
  -14.3679   -6.7846  -23.4880 H   0  0  0  0  0  0  0  0  0  0  0  0
  -14.1317   -4.3546  -24.7771 H   0  0  0  0  0  0  0  0  0  0  0  0
  -19.0818   -6.5118  -24.9952 H   0  0  0  0  0  0  0  0  0  0  0  0
  -18.2662   -2.7110  -26.8865 H   0  0  0  0  0  0  0  0  0  0  0  0
  -15.9068   -2.8551  -26.1275 H   0  0  0  0  0  0  0  0  0  0  0  0
  -27.5265   -4.7746  -23.8805 H   0  0  0  0  0  0  0  0  0  0  0  0
  -26.6574   -3.2706  -23.4205 H   0  0  0  0  0  0  0  0  0  0  0  0
  -23.5286   -3.4015  -23.9852 H   0  0  0  0  0  0  0  0  0  0  0  0
  -25.0187   -2.7335  -24.6497 H   0  0  0  0  0  0  0  0  0  0  0  0
  -24.4815   -6.9954  -24.9245 H   0  0  0  0  0  0  0  0  0  0  0  0
  -23.2126   -6.0791  -24.1223 H   0  0  0  0  0  0  0  0  0  0  0  0
  -24.3787   -3.3429  -26.9147 H   0  0  0  0  0  0  0  0  0  0  0  0
  -23.1134   -2.3707  -26.1901 H   0  0  0  0  0  0  0  0  0  0  0  0
  -22.4931   -6.6634  -26.3871 H   0  0  0  0  0  0  0  0  0  0  0  0
  -23.9743   -6.0223  -27.0737 H   0  0  0  0  0  0  0  0  0  0  0  0
  -25.1298   -6.1287  -20.7736 H   0  0  0  0  0  0  0  0  0  0  0  0
  -24.5975   -4.5950  -20.0727 H   0  0  0  0  0  0  0  0  0  0  0  0
  -21.2464   -3.3347  -25.1009 H   0  0  0  0  0  0  0  0  0  0  0  0
  -21.2873   -5.0576  -24.7261 H   0  0  0  0  0  0  0  0  0  0  0  0
  -24.4047   -3.5621  -22.3081 H   0  0  0  0  0  0  0  0  0  0  0  0
  -23.6197   -5.1687  -22.4044 H   0  0  0  0  0  0  0  0  0  0  0  0
  -25.7802   -4.9616  -25.3804 H   0  0  0  0  0  0  0  0  0  0  0  0
  -24.2834   -3.9406  -32.4210 H   0  0  0  0  0  0  0  0  0  0  0  0
  -24.2391   -3.1645  -30.8074 H   0  0  0  0  0  0  0  0  0  0  0  0
  -24.2985   -4.9415  -30.9454 H   0  0  0  0  0  0  0  0  0  0  0  0
  -18.9903   -6.0476  -30.7474 H   0  0  0  0  0  0  0  0  0  0  0  0
  -17.8320   -4.9800  -31.5568 H   0  0  0  0  0  0  0  0  0  0  0  0
  -26.9018   -4.5374  -19.8034 H   0  0  0  0  0  0  0  0  0  0  0  0
  -25.7213   -6.0546  -23.1788 H   0  0  0  0  0  0  0  0  0  0  0  0
  1  2  2  0  0  0  0
  1  3  1  0  0  0  0
  2  4  1  0  0  0  0
  3  5  2  0  0  0  0
  4 11  2  0  0  0  0
  5 11  1  0  0  0  0
  6 10  1  0  0  0  0
  6 13  2  0  0  0  0
  7 12  1  0  0  0  0
  7 14  2  0  0  0  0
  8  9  2  0  0  0  0
  8 33  1  0  0  0  0
  9 34  1  0  0  0  0
 10 12  2  0  0  0  0
 10 30  1  0  0  0  0
 11 32  1  0  0  0  0
 12 36  1  0  0  0  0
 13 14  1  0  0  0  0
 13 39  1  0  0  0  0
 14 40  1  0  0  0  0
 15 16  1  0  0  0  0
 15 33  2  0  0  0  0
 15 34  1  0  0  0  0
 16 19  2  0  0  0  0
 17 18  2  0  0  0  0
 17 19  1  0  0  0  0
 18 34  1  0  0  0  0
 19 36  1  0  0  0  0
 20 21  1  0  0  0  0
 20 35  1  0  0  0  0
 20 38  2  0  0  0  0
 21 37  1  0  0  0  0
 22 24  1  0  0  0  0
 22 29  1  0  0  0  0
 23 25  1  0  0  0  0
 23 29  1  0  0  0  0
 24 30  1  0  0  0  0
 25 30  1  0  0  0  0
 26 28  1  0  0  0  0
 26 35  1  0  0  0  0
 27 30  1  0  0  0  0
 27 36  1  0  0  0  0
 28 37  1  0  0  0  0
 29 37  1  0  0  0  0
 31 39  1  0  0  0  0
 32 40  1  0  0  0  0
  1 41  1  0  0  0  0
  2 42  1  0  0  0  0
  3 43  1  0  0  0  0
  4 44  1  0  0  0  0
  5 45  1  0  0  0  0
  6 46  1  0  0  0  0
  7 47  1  0  0  0  0
  8 48  1  0  0  0  0
  9 49  1  0  0  0  0
 16 50  1  0  0  0  0
 17 51  1  0  0  0  0
 18 52  1  0  0  0  0
 21 53  1  0  0  0  0
 21 54  1  0  0  0  0
 22 55  1  0  0  0  0
 22 56  1  0  0  0  0
 23 57  1  0  0  0  0
 23 58  1  0  0  0  0
 24 59  1  0  0  0  0
 24 60  1  0  0  0  0
 25 61  1  0  0  0  0
 25 62  1  0  0  0  0
 26 63  1  0  0  0  0
 26 64  1  0  0  0  0
 27 65  1  0  0  0  0
 27 66  1  0  0  0  0
 28 67  1  0  0  0  0
 28 68  1  0  0  0  0
 29 69  1  0  0  0  0
 31 70  1  0  0  0  0
 31 71  1  0  0  0  0
 31 72  1  0  0  0  0
 32 73  1  0  0  0  0
 32 74  1  0  0  0  0
 35 75  1  0  0  0  0
 37 76  1  0  0  0  0
M  CHG  1  37   1
M  END
> <SMILES>
COc1cc2c(cc1OCc1ccccc1)N(CC12CCC(CC1)N1CCNC(=O)C1)c1ccn2ccnc2c1

> <FORMATTED_ID>
H3D-015183

> <MOLFORMULA>
C32H35N5O3

> <Exact Mass>
537.27

> <XLogP>
5.8

> <TPSA_NOPS>
71.3

> <s_m_source_file>
ligprep_h3d.sdf

> <i_m_source_file_index>
5406

> <i_lp_mmshare_version>
55123

> <i_f3d_flags>
0

> <s_epik_input>
W2NIXTFbY0hdW2NIXVtjSF1bY0hdYzFbQ0gyXU9jKGMoW2NIXTIpT1tDSDNdKVtjSF1jKE4oW0NIMl0zKWMoW2NIXVtjSF00KVtjSF1jKG40NSluW2NIXVtjSF01KWMyW0NAXTM2W0NIMl1bQ0gyXVtDQEhdKFtDSDJdW0NIMl02KU43W0NIMl1bQ0gyXVtOSF1DKD1PKVtDSDJdNw==

> <s_epik_cmdline>
J2VwaWtfcHl0aG9uJywgJy1waHQnLCAnMC41JywgJy1waCcsICc3LjUnLCAnLXRuJywgJzgnLCAnLW1hJywgJzUwMCcsICctaW1hZScsICc8aW5maWxlLm1hZT4nLCAnLW9tYWUnLCAnPG91dGZpbGUubWFlPic=

> <r_lp_tautomer_probability>
1

> <r_epik_Ionization_Penalty>
0.665605

> <r_epik_Ionization_Penalty_Charging>
0.66528

> <r_epik_Ionization_Penalty_Neutral>
0.000325049

> <r_epik_State_Penalty>
0.661446

> <r_epik_Charging_Adjusted_Penalty>
1.32673

> <i_epik_Tot_Q>
1

> <i_epik_Tot_abs_Q>
1

> <s_lp_Force_Field>
S-OPLS

> <r_lp_Energy>
99.7564

> <b_lp_Chiralities_Consistent>
1

> <s_lp_Variant>
ligprep_h3d.sdf:5406-2

> <ROCS_ShapeQuery>
_7L13

> <ROCS_TanimotoCombo>
0.672 

> <ROCS_ShapeTanimoto>
0.620 

> <ROCS_ColorTanimoto>
0.053 

> <ROCS_RefTversky>
0.807 

> <ROCS_RefColorTversky>
0.125 

> <ROCS_RefTverskyCombo>
0.932 

> <ROCS_FitTversky>
0.727 

> <ROCS_FitColorTversky>
0.084 

> <ROCS_FitTverskyCombo>
0.811 

> <ROCS_ColorScore>
-1.153

> <ROCS_Overlap>
1348.898

> <ROCS_Rank>
149                 

$$$$
ligprep_h3d.sdf:1079_1533
  -OEChem-08212117123D

 59 64  0     1  0  0  0  0  0999 V2000
  -20.9173   -5.0791  -29.5163 C   0  0  0  0  0  0  0  0  0  0  0  0
  -21.7177   -4.3439  -30.3929 C   0  0  0  0  0  0  0  0  0  0  0  0
  -21.0430   -4.8511  -28.1241 C   0  0  0  0  0  0  0  0  0  0  0  0
  -21.9776   -3.9361  -27.5850 C   0  0  0  0  0  0  0  0  0  0  0  0
  -22.6011   -3.4293  -29.8634 C   0  0  0  0  0  0  0  0  0  0  0  0
  -22.7616   -3.1916  -28.4981 C   0  0  0  0  0  0  0  0  0  0  0  0
  -21.9142   -4.2348  -31.7820 C   0  0  0  0  0  0  0  0  0  0  0  0
  -18.9223   -3.7229  -26.1960 C   0  0  0  0  0  0  0  0  0  0  0  0
  -19.1852   -6.0074  -25.0306 C   0  0  0  0  0  0  0  0  0  0  0  0
  -19.7548   -7.0854  -35.7591 C   0  0  0  0  0  0  0  0  0  0  0  0
  -16.9528   -5.1607  -25.7216 C   0  0  0  0  0  0  0  0  0  0  0  0
  -20.1499   -5.6465  -27.2098 C   0  0  0  0  0  0  0  0  0  0  0  0
  -19.7304   -8.4866  -35.2242 C   0  0  0  0  0  0  0  0  0  0  0  0
  -20.0152   -8.2674  -33.7575 C   0  0  0  0  0  0  0  0  0  0  0  0
  -23.0873   -2.8422  -25.6472 C   0  0  0  0  0  0  0  0  0  0  0  0
  -21.1943   -4.4585  -25.2403 C   0  0  2  0  0  0  0  0  0  0  0  0
  -20.9045   -7.0447  -33.7830 C   0  0  1  0  0  0  0  0  0  0  0  0
  -23.4510   -3.1765  -24.1978 C   0  0  1  0  0  0  0  0  0  0  0  0
  -21.0649   -3.5267  -24.0002 C   0  0  2  0  0  0  0  0  0  0  0  0
  -19.8469   -4.9104  -25.8809 C   0  0  0  0  0  0  0  0  0  0  0  0
  -24.3982   -4.3700  -24.0893 C   0  0  0  0  0  0  0  0  0  0  0  0
  -20.0975   -3.9836  -22.9148 C   0  0  0  0  0  0  0  0  0  0  0  0
  -20.8447   -6.2327  -32.5032 C   0  0  0  0  0  0  0  0  0  0  0  0
  -22.8430   -3.3252  -32.0926 N   0  0  0  0  0  0  0  0  0  0  0  0
  -17.5684   -4.0188  -26.2137 N   0  0  0  0  0  0  0  0  0  0  0  0
  -17.8045   -6.0816  -25.1282 N   0  0  0  0  0  0  0  0  0  0  0  0
  -22.0977   -3.7744  -26.2026 N   0  0  3  0  0  0  0  0  0  0  0  0
  -19.3387   -2.5993  -26.4779 O   0  0  0  0  0  0  0  0  0  0  0  0
  -19.8317   -6.8259  -24.3753 O   0  0  0  0  0  0  0  0  0  0  0  0
  -19.2935   -6.7268  -36.8314 O   0  0  0  0  0  0  0  0  0  0  0  0
  -15.7328   -5.3265  -25.7712 O   0  0  0  0  0  0  0  0  0  0  0  0
  -23.2749   -2.8148  -30.8739 O   0  0  0  0  0  0  0  0  0  0  0  0
  -20.4063   -6.2645  -34.8787 O   0  0  0  0  0  0  0  0  0  0  0  0
  -22.3335   -3.4053  -23.3449 O   0  0  0  0  0  0  0  0  0  0  0  0
  -21.3050   -4.8989  -32.7733 O   0  0  0  0  0  0  0  0  0  0  0  0
  -23.5786   -2.1980  -28.1293 F   0  0  0  0  0  0  0  0  0  0  0  0
  -20.2044   -5.8048  -29.8975 H   0  0  0  0  0  0  0  0  0  0  0  0
  -20.6476   -6.6072  -27.0185 H   0  0  0  0  0  0  0  0  0  0  0  0
  -19.2091   -5.8779  -27.7278 H   0  0  0  0  0  0  0  0  0  0  0  0
  -20.5184   -9.0690  -35.7100 H   0  0  0  0  0  0  0  0  0  0  0  0
  -18.7539   -8.9510  -35.3786 H   0  0  0  0  0  0  0  0  0  0  0  0
  -20.4842   -9.1297  -33.2752 H   0  0  0  0  0  0  0  0  0  0  0  0
  -19.0743   -8.0571  -33.2335 H   0  0  0  0  0  0  0  0  0  0  0  0
  -23.9955   -2.9102  -26.2816 H   0  0  0  0  0  0  0  0  0  0  0  0
  -22.8101   -1.7771  -25.6808 H   0  0  0  0  0  0  0  0  0  0  0  0
  -21.7442   -5.3571  -24.9202 H   0  0  0  0  0  0  0  0  0  0  0  0
  -21.9443   -7.3124  -34.0054 H   0  0  0  0  0  0  0  0  0  0  0  0
  -24.0282   -2.2897  -23.7594 H   0  0  0  0  0  0  0  0  0  0  0  0
  -20.7519   -2.5111  -24.3046 H   0  0  0  0  0  0  0  0  0  0  0  0
  -23.9193   -5.2637  -24.4894 H   0  0  0  0  0  0  0  0  0  0  0  0
  -25.3101   -4.1747  -24.6536 H   0  0  0  0  0  0  0  0  0  0  0  0
  -24.6587   -4.5455  -23.0455 H   0  0  0  0  0  0  0  0  0  0  0  0
  -20.3625   -4.9855  -22.5769 H   0  0  0  0  0  0  0  0  0  0  0  0
  -20.1405   -3.3012  -22.0659 H   0  0  0  0  0  0  0  0  0  0  0  0
  -19.0799   -3.9993  -23.3050 H   0  0  0  0  0  0  0  0  0  0  0  0
  -19.8180   -6.1821  -32.1285 H   0  0  0  0  0  0  0  0  0  0  0  0
  -21.4848   -6.6779  -31.7357 H   0  0  0  0  0  0  0  0  0  0  0  0
  -16.9596   -3.3229  -26.6332 H   0  0  0  0  0  0  0  0  0  0  0  0
  -17.3618   -6.8720  -24.6688 H   0  0  0  0  0  0  0  0  0  0  0  0
  1  2  2  0  0  0  0
  1  3  1  0  0  0  0
  2  5  1  0  0  0  0
  2  7  1  0  0  0  0
  3  4  2  0  0  0  0
  3 12  1  0  0  0  0
  4  6  1  0  0  0  0
  4 27  1  0  0  0  0
  5  6  2  0  0  0  0
  5 32  1  0  0  0  0
  6 36  1  0  0  0  0
  7 24  2  0  0  0  0
  7 35  1  0  0  0  0
  8 20  1  0  0  0  0
  8 25  1  0  0  0  0
  8 28  2  0  0  0  0
  9 20  1  0  0  0  0
  9 26  1  0  0  0  0
  9 29  2  0  0  0  0
 10 13  1  0  0  0  0
 10 30  2  0  0  0  0
 10 33  1  0  0  0  0
 11 25  1  0  0  0  0
 11 26  1  0  0  0  0
 11 31  2  0  0  0  0
 12 20  1  0  0  0  0
 13 14  1  0  0  0  0
 14 17  1  0  0  0  0
 15 18  1  0  0  0  0
 15 27  1  0  0  0  0
 16 19  1  0  0  0  0
 16 20  1  0  0  0  0
 16 27  1  0  0  0  0
 17 23  1  0  0  0  0
 17 33  1  0  0  0  0
 18 21  1  0  0  0  0
 18 34  1  0  0  0  0
 19 22  1  0  0  0  0
 19 34  1  0  0  0  0
 23 35  1  0  0  0  0
 24 32  1  0  0  0  0
  1 37  1  0  0  0  0
 12 38  1  0  0  0  0
 12 39  1  0  0  0  0
 13 40  1  0  0  0  0
 13 41  1  0  0  0  0
 14 42  1  0  0  0  0
 14 43  1  0  0  0  0
 15 44  1  0  0  0  0
 15 45  1  0  0  0  0
 16 46  1  0  0  0  0
 17 47  1  0  0  0  0
 18 48  1  0  0  0  0
 19 49  1  0  0  0  0
 21 50  1  0  0  0  0
 21 51  1  0  0  0  0
 21 52  1  0  0  0  0
 22 53  1  0  0  0  0
 22 54  1  0  0  0  0
 22 55  1  0  0  0  0
 23 56  1  0  0  0  0
 23 57  1  0  0  0  0
 25 58  1  0  0  0  0
 26 59  1  0  0  0  0
M  END
> <SMILES>
C[C@@H]1CN2[C@H]([C@H](C)O1)C1(Cc3cc4c(noc4c(c32)F)OC[C@@H]2CCC(=O)O2)C(=O)NC(=O)NC1=O

> <FORMATTED_ID>
H3D-006687

> <MOLFORMULA>
C23H23FN4O8

> <Exact Mass>
502.15

> <XLogP>
0.83

> <TPSA_NOPS>
149.6

> <s_m_source_file>
ligprep_h3d.sdf

> <i_m_source_file_index>
1079

> <i_lp_mmshare_version>
55123

> <i_f3d_flags>
0

> <s_epik_input>
Tz1DMVtOSF1DKD1PKVtOSF1DKD1PKUMxMltDQEBIXTNOKFtDSDJdW0NAQEhdKFtDSDNdKU9bQ0BIXTNbQ0gzXSljNGMoW0NIMl0yKVtjSF1jNWMoYzRGKW9uYzVPW0NIMl1bQ0BASF02W0NIMl1bQ0gyXUMoPU8pTzY=

> <s_epik_cmdline>
J2VwaWtfcHl0aG9uJywgJy1waHQnLCAnMC41JywgJy1waCcsICc3LjUnLCAnLXRuJywgJzgnLCAnLW1hJywgJzUwMCcsICctaW1hZScsICc8aW5maWxlLm1hZT4nLCAnLW9tYWUnLCAnPG91dGZpbGUubWFlPic=

> <r_lp_tautomer_probability>
1

> <r_epik_Ionization_Penalty>
0.369127

> <r_epik_Ionization_Penalty_Charging>
0

> <r_epik_Ionization_Penalty_Neutral>
0.369127

> <r_epik_State_Penalty>
0.366447

> <r_epik_Charging_Adjusted_Penalty>
0.366447

> <i_epik_Tot_Q>
0

> <i_epik_Tot_abs_Q>
0

> <s_epik_Chemistry_Notes>
This compound has an ester and may undergo hydrolysis at high or low pH.

> <s_lp_Force_Field>
S-OPLS

> <r_lp_Energy>
41.4873

> <b_lp_Chiralities_Consistent>
1

> <s_lp_Variant>
ligprep_h3d.sdf:1079-1

> <ROCS_ShapeQuery>
_7L13

> <ROCS_TanimotoCombo>
0.793 

> <ROCS_ShapeTanimoto>
0.664 

> <ROCS_ColorTanimoto>
0.130 

> <ROCS_RefTversky>
0.807 

> <ROCS_RefColorTversky>
0.297 

> <ROCS_RefTverskyCombo>
1.104 

> <ROCS_FitTversky>
0.789 

> <ROCS_FitColorTversky>
0.187 

> <ROCS_FitTverskyCombo>
0.976 

> <ROCS_ColorScore>
-2.759

> <ROCS_Overlap>
1342.387

> <ROCS_Rank>
150                 

$$$$
ligprep_h3d.sdf:5306_722
  -OEChem-08212117123D

 64 68  0     0  0  0  0  0  0999 V2000
  -21.1145   -4.1033  -33.8179 C   0  0  0  0  0  0  0  0  0  0  0  0
  -20.7338   -6.3117  -32.9151 C   0  0  0  0  0  0  0  0  0  0  0  0
  -20.2220   -4.3735  -34.8552 C   0  0  0  0  0  0  0  0  0  0  0  0
  -19.8413   -6.5819  -33.9524 C   0  0  0  0  0  0  0  0  0  0  0  0
  -18.4552   -3.8641  -26.1570 C   0  0  0  0  0  0  0  0  0  0  0  0
  -18.7405   -6.1655  -25.5196 C   0  0  0  0  0  0  0  0  0  0  0  0
  -23.7893   -3.9813  -27.7774 C   0  0  0  0  0  0  0  0  0  0  0  0
  -21.1052   -4.3697  -28.5339 C   0  0  0  0  0  0  0  0  0  0  0  0
  -17.0927   -4.0389  -25.9758 C   0  0  0  0  0  0  0  0  0  0  0  0
  -17.3652   -6.2374  -25.3671 C   0  0  0  0  0  0  0  0  0  0  0  0
  -22.8209   -4.3157  -26.8384 C   0  0  0  0  0  0  0  0  0  0  0  0
  -21.3704   -5.0724  -32.8478 C   0  0  0  0  0  0  0  0  0  0  0  0
  -19.5854   -5.6128  -34.9225 C   0  0  0  0  0  0  0  0  0  0  0  0
  -19.2880   -4.9525  -25.9225 C   0  0  0  0  0  0  0  0  0  0  0  0
  -21.4779   -4.4943  -27.2012 C   0  0  0  0  0  0  0  0  0  0  0  0
  -23.4076   -3.8438  -29.1104 C   0  0  0  0  0  0  0  0  0  0  0  0
  -22.0745   -4.0411  -29.4867 C   0  0  0  0  0  0  0  0  0  0  0  0
  -23.1451   -3.1308  -24.6574 C   0  0  0  0  0  0  0  0  0  0  0  0
  -24.1619   -5.4211  -24.9837 C   0  0  0  0  0  0  0  0  0  0  0  0
  -21.6131   -5.1670  -25.0067 C   0  0  0  0  0  0  0  0  0  0  0  0
  -23.3965   -3.2404  -23.1569 C   0  0  0  0  0  0  0  0  0  0  0  0
  -24.3611   -5.5345  -23.4779 C   0  0  0  0  0  0  0  0  0  0  0  0
  -22.9843   -4.5008  -25.3494 C   0  0  0  0  0  0  0  0  0  0  0  0
  -24.9148   -4.2137  -21.4379 C   0  0  0  0  0  0  0  0  0  0  0  0
  -24.5551   -2.1291  -30.2931 C   0  0  0  0  0  0  0  0  0  0  0  0
  -22.3306   -4.7827  -31.7318 C   0  0  0  0  0  0  0  0  0  0  0  0
  -18.6325   -5.9016  -36.0329 C   0  0  0  0  0  0  0  0  0  0  0  0
  -16.5242   -5.2017  -25.5855 N   0  0  0  0  0  0  0  0  0  0  0  0
  -20.6703   -4.8280  -26.0905 N   0  0  0  0  0  0  0  0  0  0  0  0
  -24.5676   -4.1554  -22.9004 N   0  3  0  0  0  0  0  0  0  0  0  0
  -24.3462   -3.5173  -30.0431 O   0  0  0  0  0  0  0  0  0  0  0  0
  -21.7039   -3.9121  -30.7930 O   0  0  0  0  0  0  0  0  0  0  0  0
  -18.4809   -4.8638  -36.9081 F   0  0  0  0  0  0  0  0  0  0  0  0
  -17.3686   -6.1949  -35.6062 F   0  0  0  0  0  0  0  0  0  0  0  0
  -19.0191   -6.9676  -36.7927 F   0  0  0  0  0  0  0  0  0  0  0  0
  -21.6058   -3.1348  -33.7733 H   0  0  0  0  0  0  0  0  0  0  0  0
  -20.9284   -7.0730  -32.1641 H   0  0  0  0  0  0  0  0  0  0  0  0
  -20.0303   -3.6131  -35.6075 H   0  0  0  0  0  0  0  0  0  0  0  0
  -19.3495   -7.5501  -33.9975 H   0  0  0  0  0  0  0  0  0  0  0  0
  -18.8503   -2.9042  -26.4724 H   0  0  0  0  0  0  0  0  0  0  0  0
  -19.3615   -7.0343  -25.3283 H   0  0  0  0  0  0  0  0  0  0  0  0
  -24.8218   -3.8244  -27.4821 H   0  0  0  0  0  0  0  0  0  0  0  0
  -20.0730   -4.5188  -28.8377 H   0  0  0  0  0  0  0  0  0  0  0  0
  -16.4005   -3.2209  -26.1460 H   0  0  0  0  0  0  0  0  0  0  0  0
  -16.8885   -7.1609  -25.0552 H   0  0  0  0  0  0  0  0  0  0  0  0
  -23.9844   -2.5846  -25.1101 H   0  0  0  0  0  0  0  0  0  0  0  0
  -22.2576   -2.5064  -24.8242 H   0  0  0  0  0  0  0  0  0  0  0  0
  -24.0154   -6.4231  -25.4068 H   0  0  0  0  0  0  0  0  0  0  0  0
  -25.0921   -5.0436  -25.4287 H   0  0  0  0  0  0  0  0  0  0  0  0
  -21.2190   -4.8412  -24.0379 H   0  0  0  0  0  0  0  0  0  0  0  0
  -21.7152   -6.2606  -24.9657 H   0  0  0  0  0  0  0  0  0  0  0  0
  -22.5340   -3.6447  -22.6173 H   0  0  0  0  0  0  0  0  0  0  0  0
  -23.6508   -2.2595  -22.7414 H   0  0  0  0  0  0  0  0  0  0  0  0
  -25.2585   -6.1209  -23.2545 H   0  0  0  0  0  0  0  0  0  0  0  0
  -23.4981   -5.9838  -22.9748 H   0  0  0  0  0  0  0  0  0  0  0  0
  -24.0632   -4.6461  -20.9095 H   0  0  0  0  0  0  0  0  0  0  0  0
  -25.1102   -3.1942  -21.1000 H   0  0  0  0  0  0  0  0  0  0  0  0
  -25.8026   -4.8398  -21.3300 H   0  0  0  0  0  0  0  0  0  0  0  0
  -25.3277   -2.0077  -31.0562 H   0  0  0  0  0  0  0  0  0  0  0  0
  -23.6203   -1.6740  -30.6301 H   0  0  0  0  0  0  0  0  0  0  0  0
  -24.8804   -1.6464  -29.3685 H   0  0  0  0  0  0  0  0  0  0  0  0
  -23.2396   -4.3038  -32.1115 H   0  0  0  0  0  0  0  0  0  0  0  0
  -22.6247   -5.7073  -31.2235 H   0  0  0  0  0  0  0  0  0  0  0  0
  -25.3836   -3.7455  -23.3753 H   0  0  0  0  0  0  0  0  0  0  0  0
  1  3  1  0  0  0  0
  1 12  2  0  0  0  0
  2  4  2  0  0  0  0
  2 12  1  0  0  0  0
  3 13  2  0  0  0  0
  4 13  1  0  0  0  0
  5  9  1  0  0  0  0
  5 14  2  0  0  0  0
  6 10  2  0  0  0  0
  6 14  1  0  0  0  0
  7 11  1  0  0  0  0
  7 16  2  0  0  0  0
  8 15  1  0  0  0  0
  8 17  2  0  0  0  0
  9 28  2  0  0  0  0
 10 28  1  0  0  0  0
 11 15  2  0  0  0  0
 11 23  1  0  0  0  0
 12 26  1  0  0  0  0
 13 27  1  0  0  0  0
 14 29  1  0  0  0  0
 15 29  1  0  0  0  0
 16 17  1  0  0  0  0
 16 31  1  0  0  0  0
 17 32  1  0  0  0  0
 18 21  1  0  0  0  0
 18 23  1  0  0  0  0
 19 22  1  0  0  0  0
 19 23  1  0  0  0  0
 20 23  1  0  0  0  0
 20 29  1  0  0  0  0
 21 30  1  0  0  0  0
 22 30  1  0  0  0  0
 24 30  1  0  0  0  0
 25 31  1  0  0  0  0
 26 32  1  0  0  0  0
 27 33  1  0  0  0  0
 27 34  1  0  0  0  0
 27 35  1  0  0  0  0
  1 36  1  0  0  0  0
  2 37  1  0  0  0  0
  3 38  1  0  0  0  0
  4 39  1  0  0  0  0
  5 40  1  0  0  0  0
  6 41  1  0  0  0  0
  7 42  1  0  0  0  0
  8 43  1  0  0  0  0
  9 44  1  0  0  0  0
 10 45  1  0  0  0  0
 18 46  1  0  0  0  0
 18 47  1  0  0  0  0
 19 48  1  0  0  0  0
 19 49  1  0  0  0  0
 20 50  1  0  0  0  0
 20 51  1  0  0  0  0
 21 52  1  0  0  0  0
 21 53  1  0  0  0  0
 22 54  1  0  0  0  0
 22 55  1  0  0  0  0
 24 56  1  0  0  0  0
 24 57  1  0  0  0  0
 24 58  1  0  0  0  0
 25 59  1  0  0  0  0
 25 60  1  0  0  0  0
 25 61  1  0  0  0  0
 26 62  1  0  0  0  0
 26 63  1  0  0  0  0
 30 64  1  0  0  0  0
M  CHG  1  30   1
M  END
> <SMILES>
COc1cc2c(cc1OCc1ccc(cc1)C(F)(F)F)N(CC12CCN(C)CC1)c1ccncc1

> <FORMATTED_ID>
H3D-014124

> <MOLFORMULA>
C27H28F3N3O2

> <Exact Mass>
483.21

> <XLogP>
5.89

> <TPSA_NOPS>
37.8

> <s_m_source_file>
ligprep_h3d.sdf

> <i_m_source_file_index>
5306

> <i_lp_mmshare_version>
55123

> <i_f3d_flags>
0

> <s_epik_input>
W2NIXTFbY0hdYyhDKEYpKEYpRilbY0hdW2NIXWMxW0NIMl1PYyhjKFtjSF0yKU9bQ0gzXSlbY0hdYyhjMkMzNFtDSDJdW0NIMl1OKFtDSDNdKVtDSDJdW0NIMl00KU4oW0NIMl0zKWM1W2NIXVtjSF1uW2NIXVtjSF01

> <s_epik_cmdline>
J2VwaWtfcHl0aG9uJywgJy1waHQnLCAnMC41JywgJy1waCcsICc3LjUnLCAnLXRuJywgJzgnLCAnLW1hJywgJzUwMCcsICctaW1hZScsICc8aW5maWxlLm1hZT4nLCAnLW9tYWUnLCAnPG91dGZpbGUubWFlPic=

> <r_lp_tautomer_probability>
1

> <r_epik_Ionization_Penalty>
0.130099

> <r_epik_Ionization_Penalty_Charging>
0.00689193

> <r_epik_Ionization_Penalty_Neutral>
0.123207

> <r_epik_State_Penalty>
0.112704

> <r_epik_Charging_Adjusted_Penalty>
0.119596

> <i_epik_Tot_Q>
1

> <i_epik_Tot_abs_Q>
1

> <s_lp_Force_Field>
S-OPLS

> <r_lp_Energy>
71.2103

> <b_lp_Chiralities_Consistent>
1

> <s_lp_Variant>
ligprep_h3d.sdf:5306-1

> <ROCS_ShapeQuery>
_7L13

> <ROCS_TanimotoCombo>
0.801 

> <ROCS_ShapeTanimoto>
0.692 

> <ROCS_ColorTanimoto>
0.109 

> <ROCS_RefTversky>
0.807 

> <ROCS_RefColorTversky>
0.207 

> <ROCS_RefTverskyCombo>
1.013 

> <ROCS_FitTversky>
0.829 

> <ROCS_FitColorTversky>
0.188 

> <ROCS_FitTverskyCombo>
1.016 

> <ROCS_ColorScore>
-1.869

> <ROCS_Overlap>
1338.074

> <ROCS_Rank>
151                 

$$$$
ligprep_h3d.sdf:1336_65
  -OEChem-08212117123D

 52 57  0     1  0  0  0  0  0999 V2000
  -20.9187   -5.0826  -29.4972 C   0  0  0  0  0  0  0  0  0  0  0  0
  -21.7280   -4.3573  -30.3741 C   0  0  0  0  0  0  0  0  0  0  0  0
  -21.0490   -4.8575  -28.1053 C   0  0  0  0  0  0  0  0  0  0  0  0
  -21.9960   -3.9551  -27.5672 C   0  0  0  0  0  0  0  0  0  0  0  0
  -22.6245   -3.4551  -29.8450 C   0  0  0  0  0  0  0  0  0  0  0  0
  -22.7899   -3.2208  -28.4799 C   0  0  0  0  0  0  0  0  0  0  0  0
  -21.9243   -4.2496  -31.7635 C   0  0  0  0  0  0  0  0  0  0  0  0
  -21.2068   -5.0068  -32.8051 C   0  0  0  0  0  0  0  0  0  0  0  0
  -20.4418   -6.5714  -33.9810 C   0  0  0  0  0  0  0  0  0  0  0  0
  -19.1800   -5.9860  -25.0079 C   0  0  0  0  0  0  0  0  0  0  0  0
  -18.9412   -3.7036  -26.1829 C   0  0  0  0  0  0  0  0  0  0  0  0
  -16.9566   -5.1184  -25.7016 C   0  0  0  0  0  0  0  0  0  0  0  0
  -24.3464   -4.4040  -24.0498 C   0  0  0  0  0  0  0  0  0  0  0  0
  -20.1490   -5.6428  -27.1889 C   0  0  0  0  0  0  0  0  0  0  0  0
  -23.1437   -2.8957  -25.6349 C   0  0  0  0  0  0  0  0  0  0  0  0
  -23.4638   -3.1986  -24.1736 C   0  0  2  0  0  0  0  0  0  0  0  0
  -21.2047   -4.4594  -25.2213 C   0  0  2  0  0  0  0  0  0  0  0  0
  -21.0827   -3.5155  -23.9898 C   0  0  2  0  0  0  0  0  0  0  0  0
  -19.8532   -4.8994  -25.8624 C   0  0  0  0  0  0  0  0  0  0  0  0
  -20.2260   -7.9655  -34.3880 C   0  0  0  0  0  0  0  0  0  0  0  0
  -20.1015   -3.9480  -22.9068 C   0  0  0  0  0  0  0  0  0  0  0  0
  -22.8640   -3.3517  -32.0745 N   0  0  0  0  0  0  0  0  0  0  0  0
  -20.4863   -4.4341  -33.7409 N   0  0  0  0  0  0  0  0  0  0  0  0
  -19.9832   -5.4634  -34.5145 N   0  0  0  0  0  0  0  0  0  0  0  0
  -17.7986   -6.0464  -25.1057 N   0  0  0  0  0  0  0  0  0  0  0  0
  -17.5841   -3.9847  -26.1976 N   0  0  0  0  0  0  0  0  0  0  0  0
  -22.1188   -3.7936  -26.1849 N   0  0  3  0  0  0  0  0  0  0  0  0
  -23.8553   -5.4794  -24.4920 O   0  5  0  0  0  0  0  0  0  0  0  0
  -19.8177   -6.8082  -24.3486 O   0  0  0  0  0  0  0  0  0  0  0  0
  -19.3696   -2.5863  -26.4719 O   0  0  0  0  0  0  0  0  0  0  0  0
  -15.7349   -5.2711  -25.7503 O   0  0  0  0  0  0  0  0  0  0  0  0
  -25.4705   -4.1849  -23.5172 O   0  0  0  0  0  0  0  0  0  0  0  0
  -23.3046   -2.8484  -30.8560 O   0  0  0  0  0  0  0  0  0  0  0  0
  -21.2285   -6.3651  -32.8896 O   0  0  0  0  0  0  0  0  0  0  0  0
  -22.3496   -3.4109  -23.3284 O   0  0  0  0  0  0  0  0  0  0  0  0
  -23.6216   -2.2394  -28.1124 F   0  0  0  0  0  0  0  0  0  0  0  0
  -20.1954   -5.7992  -29.8761 H   0  0  0  0  0  0  0  0  0  0  0  0
  -20.6392   -6.6061  -26.9947 H   0  0  0  0  0  0  0  0  0  0  0  0
  -19.2064   -5.8668  -27.7057 H   0  0  0  0  0  0  0  0  0  0  0  0
  -24.0575   -3.0214  -26.2557 H   0  0  0  0  0  0  0  0  0  0  0  0
  -22.9245   -1.8170  -25.7065 H   0  0  0  0  0  0  0  0  0  0  0  0
  -24.0680   -2.3198  -23.7246 H   0  0  0  0  0  0  0  0  0  0  0  0
  -21.7423   -5.3614  -24.8916 H   0  0  0  0  0  0  0  0  0  0  0  0
  -20.7895   -2.4979  -24.3048 H   0  0  0  0  0  0  0  0  0  0  0  0
  -19.3390   -8.3996  -33.8918 H   0  0  0  0  0  0  0  0  0  0  0  0
  -21.0887   -8.6141  -34.1449 H   0  0  0  0  0  0  0  0  0  0  0  0
  -20.0748   -8.0675  -35.4793 H   0  0  0  0  0  0  0  0  0  0  0  0
  -20.3480   -4.9514  -22.5596 H   0  0  0  0  0  0  0  0  0  0  0  0
  -20.1505   -3.2598  -22.0630 H   0  0  0  0  0  0  0  0  0  0  0  0
  -19.0861   -3.9503  -23.3031 H   0  0  0  0  0  0  0  0  0  0  0  0
  -17.3479   -6.8315  -24.6448 H   0  0  0  0  0  0  0  0  0  0  0  0
  -16.9823   -3.2830  -26.6179 H   0  0  0  0  0  0  0  0  0  0  0  0
  1  2  2  0  0  0  0
  1  3  1  0  0  0  0
  2  5  1  0  0  0  0
  2  7  1  0  0  0  0
  3  4  2  0  0  0  0
  3 14  1  0  0  0  0
  4  6  1  0  0  0  0
  4 27  1  0  0  0  0
  5  6  2  0  0  0  0
  5 33  1  0  0  0  0
  6 36  1  0  0  0  0
  7  8  1  0  0  0  0
  7 22  2  0  0  0  0
  8 23  2  0  0  0  0
  8 34  1  0  0  0  0
  9 20  1  0  0  0  0
  9 24  2  0  0  0  0
  9 34  1  0  0  0  0
 10 19  1  0  0  0  0
 10 25  1  0  0  0  0
 10 29  2  0  0  0  0
 11 19  1  0  0  0  0
 11 26  1  0  0  0  0
 11 30  2  0  0  0  0
 12 25  1  0  0  0  0
 12 26  1  0  0  0  0
 12 31  2  0  0  0  0
 13 16  1  0  0  0  0
 13 28  1  0  0  0  0
 13 32  2  0  0  0  0
 14 19  1  0  0  0  0
 15 16  1  0  0  0  0
 15 27  1  0  0  0  0
 16 35  1  0  0  0  0
 17 18  1  0  0  0  0
 17 19  1  0  0  0  0
 17 27  1  0  0  0  0
 18 21  1  0  0  0  0
 18 35  1  0  0  0  0
 22 33  1  0  0  0  0
 23 24  1  0  0  0  0
  1 37  1  0  0  0  0
 14 38  1  0  0  0  0
 14 39  1  0  0  0  0
 15 40  1  0  0  0  0
 15 41  1  0  0  0  0
 16 42  1  0  0  0  0
 17 43  1  0  0  0  0
 18 44  1  0  0  0  0
 20 45  1  0  0  0  0
 20 46  1  0  0  0  0
 20 47  1  0  0  0  0
 21 48  1  0  0  0  0
 21 49  1  0  0  0  0
 21 50  1  0  0  0  0
 25 51  1  0  0  0  0
 26 52  1  0  0  0  0
M  CHG  1  28  -1
M  END
> <SMILES>
C[C@@H]1O[C@@H](CN2[C@H]1C1(Cc3cc4c(noc4c(c32)F)-c2nnc(o2)C)C(=O)NC(=O)NC1=O)C(=O)O

> <FORMATTED_ID>
H3D-009073

> <MOLFORMULA>
C21H17FN6O8

> <Exact Mass>
500.11

> <XLogP>
-0.31

> <TPSA_NOPS>
190.6

> <s_m_source_file>
ligprep_h3d.sdf

> <i_m_source_file_index>
1336

> <i_lp_mmshare_version>
55123

> <i_f3d_flags>
0

> <s_epik_input>
Tz1DMVtOSF1DKD1PKVtOSF1DKD1PKUMxMltDQEBIXTNOKFtDSDJdW0NAQEhdKEMoPU8pW09IXSlPW0NASF0zW0NIM10pYzRjKFtDSDJdMilbY0hdYzVjKGM0RilvbmM1LWM2bm5jKG82KVtDSDNd

> <s_epik_cmdline>
J2VwaWtfcHl0aG9uJywgJy1waHQnLCAnMC41JywgJy1waCcsICc3LjUnLCAnLXRuJywgJzgnLCAnLW1hJywgJzUwMCcsICctaW1hZScsICc8aW5maWxlLm1hZT4nLCAnLW9tYWUnLCAnPG91dGZpbGUubWFlPic=

> <r_lp_tautomer_probability>
1

> <r_epik_Ionization_Penalty>
0.34485

> <r_epik_Ionization_Penalty_Charging>
3.35997e-05

> <r_epik_Ionization_Penalty_Neutral>
0.344817

> <r_epik_State_Penalty>
0.340689

> <r_epik_Charging_Adjusted_Penalty>
0.340723

> <i_epik_Tot_Q>
-1

> <i_epik_Tot_abs_Q>
1

> <s_lp_Force_Field>
S-OPLS

> <r_lp_Energy>
51.9037

> <b_lp_Chiralities_Consistent>
1

> <s_lp_Variant>
ligprep_h3d.sdf:1336-1

> <ROCS_ShapeQuery>
_7L13

> <ROCS_TanimotoCombo>
0.769 

> <ROCS_ShapeTanimoto>
0.655 

> <ROCS_ColorTanimoto>
0.114 

> <ROCS_RefTversky>
0.807 

> <ROCS_RefColorTversky>
0.294 

> <ROCS_RefTverskyCombo>
1.101 

> <ROCS_FitTversky>
0.777 

> <ROCS_FitColorTversky>
0.156 

> <ROCS_FitTverskyCombo>
0.933 

> <ROCS_ColorScore>
-2.788

> <ROCS_Overlap>
1342.767

> <ROCS_Rank>
152                 

$$$$
ligprep_h3d.sdf:5136_1498
  -OEChem-08212117123D

 69 74  0     0  0  0  0  0  0999 V2000
  -19.5125   -6.1906  -36.3003 C   0  0  0  0  0  0  0  0  0  0  0  0
  -19.4102   -7.2956  -35.4553 C   0  0  0  0  0  0  0  0  0  0  0  0
  -19.5769   -4.9051  -35.7627 C   0  0  0  0  0  0  0  0  0  0  0  0
  -19.3723   -7.1151  -34.0727 C   0  0  0  0  0  0  0  0  0  0  0  0
  -19.5391   -4.7246  -34.3801 C   0  0  0  0  0  0  0  0  0  0  0  0
  -22.7157   -4.2657  -29.1037 C   0  0  0  0  0  0  0  0  0  0  0  0
  -19.9164   -4.5368  -29.3424 C   0  0  0  0  0  0  0  0  0  0  0  0
  -14.6910   -6.3361  -25.1035 C   0  0  0  0  0  0  0  0  0  0  0  0
  -14.6144   -5.1418  -25.7806 C   0  0  0  0  0  0  0  0  0  0  0  0
  -21.9154   -4.3689  -27.9726 C   0  0  0  0  0  0  0  0  0  0  0  0
  -19.4368   -5.8296  -33.5351 C   0  0  0  0  0  0  0  0  0  0  0  0
  -20.5314   -4.5028  -28.0993 C   0  0  0  0  0  0  0  0  0  0  0  0
  -22.1103   -4.2985  -30.3615 C   0  0  0  0  0  0  0  0  0  0  0  0
  -20.7201   -4.4331  -30.4795 C   0  0  0  0  0  0  0  0  0  0  0  0
  -16.7047   -5.8722  -25.6497 C   0  0  0  0  0  0  0  0  0  0  0  0
  -18.1055   -5.7776  -25.8977 C   0  0  0  0  0  0  0  0  0  0  0  0
  -17.7236   -3.6699  -27.0600 C   0  0  0  0  0  0  0  0  0  0  0  0
  -16.4034   -3.7509  -26.8302 C   0  0  0  0  0  0  0  0  0  0  0  0
  -18.6208   -4.7249  -26.5756 C   0  0  0  0  0  0  0  0  0  0  0  0
  -23.2768   -5.5446  -26.2041 C   0  0  0  0  0  0  0  0  0  0  0  0
  -23.0339   -3.0304  -26.1500 C   0  0  0  0  0  0  0  0  0  0  0  0
  -20.9720   -4.5067  -25.7989 C   0  0  0  0  0  0  0  0  0  0  0  0
  -23.8019   -5.5156  -24.7732 C   0  0  0  0  0  0  0  0  0  0  0  0
  -23.5605   -3.0194  -24.7195 C   0  0  0  0  0  0  0  0  0  0  0  0
  -22.3457   -4.3584  -26.5193 C   0  0  0  0  0  0  0  0  0  0  0  0
  -23.1319   -2.8845  -31.9780 C   0  0  0  0  0  0  0  0  0  0  0  0
  -19.3964   -5.6348  -32.0478 C   0  0  0  0  0  0  0  0  0  0  0  0
  -25.1310   -4.1616  -23.1574 C   0  0  0  0  0  0  0  0  0  0  0  0
  -26.4735   -4.8625  -23.2254 C   0  0  0  0  0  0  0  0  0  0  0  0
  -15.9856   -6.7829  -25.0255 N   0  0  0  0  0  0  0  0  0  0  0  0
  -15.9056   -4.8431  -26.1317 N   0  0  0  0  0  0  0  0  0  0  0  0
  -19.9376   -4.5887  -26.8357 N   0  0  0  0  0  0  0  0  0  0  0  0
  -24.4842   -4.1949  -24.5150 N   0  3  0  0  0  0  0  0  0  0  0  0
  -27.1064   -4.8031  -21.9540 O   0  0  0  0  0  0  0  0  0  0  0  0
  -22.8877   -4.1968  -31.4768 O   0  0  0  0  0  0  0  0  0  0  0  0
  -20.1364   -4.4636  -31.7117 O   0  0  0  0  0  0  0  0  0  0  0  0
  -19.5406   -6.3312  -37.3769 H   0  0  0  0  0  0  0  0  0  0  0  0
  -19.3589   -8.2966  -35.8737 H   0  0  0  0  0  0  0  0  0  0  0  0
  -19.6555   -4.0445  -36.4204 H   0  0  0  0  0  0  0  0  0  0  0  0
  -19.2927   -7.9820  -33.4219 H   0  0  0  0  0  0  0  0  0  0  0  0
  -19.5900   -3.7193  -33.9702 H   0  0  0  0  0  0  0  0  0  0  0  0
  -23.7927   -4.1613  -29.0147 H   0  0  0  0  0  0  0  0  0  0  0  0
  -18.8418   -4.6398  -29.4478 H   0  0  0  0  0  0  0  0  0  0  0  0
  -13.8773   -6.8971  -24.6676 H   0  0  0  0  0  0  0  0  0  0  0  0
  -13.7819   -4.4999  -26.0339 H   0  0  0  0  0  0  0  0  0  0  0  0
  -18.7475   -6.5719  -25.5292 H   0  0  0  0  0  0  0  0  0  0  0  0
  -18.1393   -2.8277  -27.6028 H   0  0  0  0  0  0  0  0  0  0  0  0
  -15.7012   -2.9979  -27.1667 H   0  0  0  0  0  0  0  0  0  0  0  0
  -22.7597   -6.4972  -26.3794 H   0  0  0  0  0  0  0  0  0  0  0  0
  -24.1359   -5.5413  -26.8886 H   0  0  0  0  0  0  0  0  0  0  0  0
  -23.8751   -2.8399  -26.8304 H   0  0  0  0  0  0  0  0  0  0  0  0
  -22.3435   -2.1879  -26.2867 H   0  0  0  0  0  0  0  0  0  0  0  0
  -20.7615   -3.6521  -25.1444 H   0  0  0  0  0  0  0  0  0  0  0  0
  -20.9340   -5.4093  -25.1771 H   0  0  0  0  0  0  0  0  0  0  0  0
  -24.5477   -6.3037  -24.6251 H   0  0  0  0  0  0  0  0  0  0  0  0
  -23.0042   -5.6295  -24.0319 H   0  0  0  0  0  0  0  0  0  0  0  0
  -22.7586   -3.0924  -23.9774 H   0  0  0  0  0  0  0  0  0  0  0  0
  -24.1421   -2.1103  -24.5345 H   0  0  0  0  0  0  0  0  0  0  0  0
  -23.7637   -2.9451  -32.8675 H   0  0  0  0  0  0  0  0  0  0  0  0
  -22.1813   -2.4052  -32.2251 H   0  0  0  0  0  0  0  0  0  0  0  0
  -23.6435   -2.3001  -31.2096 H   0  0  0  0  0  0  0  0  0  0  0  0
  -19.8328   -6.4945  -31.5281 H   0  0  0  0  0  0  0  0  0  0  0  0
  -18.3642   -5.5197  -31.6998 H   0  0  0  0  0  0  0  0  0  0  0  0
  -24.4391   -4.6618  -22.4740 H   0  0  0  0  0  0  0  0  0  0  0  0
  -25.2382   -3.1079  -22.8868 H   0  0  0  0  0  0  0  0  0  0  0  0
  -27.1207   -4.3565  -23.9486 H   0  0  0  0  0  0  0  0  0  0  0  0
  -26.3677   -5.9112  -23.5217 H   0  0  0  0  0  0  0  0  0  0  0  0
  -25.2466   -4.1063  -25.2010 H   0  0  0  0  0  0  0  0  0  0  0  0
  -27.9576   -5.2613  -22.0433 H   0  0  0  0  0  0  0  0  0  0  0  0
  1  2  2  0  0  0  0
  1  3  1  0  0  0  0
  2  4  1  0  0  0  0
  3  5  2  0  0  0  0
  4 11  2  0  0  0  0
  5 11  1  0  0  0  0
  6 10  1  0  0  0  0
  6 13  2  0  0  0  0
  7 12  1  0  0  0  0
  7 14  2  0  0  0  0
  8  9  2  0  0  0  0
  8 30  1  0  0  0  0
  9 31  1  0  0  0  0
 10 12  2  0  0  0  0
 10 25  1  0  0  0  0
 11 27  1  0  0  0  0
 12 32  1  0  0  0  0
 13 14  1  0  0  0  0
 13 35  1  0  0  0  0
 14 36  1  0  0  0  0
 15 16  1  0  0  0  0
 15 30  2  0  0  0  0
 15 31  1  0  0  0  0
 16 19  2  0  0  0  0
 17 18  2  0  0  0  0
 17 19  1  0  0  0  0
 18 31  1  0  0  0  0
 19 32  1  0  0  0  0
 20 23  1  0  0  0  0
 20 25  1  0  0  0  0
 21 24  1  0  0  0  0
 21 25  1  0  0  0  0
 22 25  1  0  0  0  0
 22 32  1  0  0  0  0
 23 33  1  0  0  0  0
 24 33  1  0  0  0  0
 26 35  1  0  0  0  0
 27 36  1  0  0  0  0
 28 29  1  0  0  0  0
 28 33  1  0  0  0  0
 29 34  1  0  0  0  0
  1 37  1  0  0  0  0
  2 38  1  0  0  0  0
  3 39  1  0  0  0  0
  4 40  1  0  0  0  0
  5 41  1  0  0  0  0
  6 42  1  0  0  0  0
  7 43  1  0  0  0  0
  8 44  1  0  0  0  0
  9 45  1  0  0  0  0
 16 46  1  0  0  0  0
 17 47  1  0  0  0  0
 18 48  1  0  0  0  0
 20 49  1  0  0  0  0
 20 50  1  0  0  0  0
 21 51  1  0  0  0  0
 21 52  1  0  0  0  0
 22 53  1  0  0  0  0
 22 54  1  0  0  0  0
 23 55  1  0  0  0  0
 23 56  1  0  0  0  0
 24 57  1  0  0  0  0
 24 58  1  0  0  0  0
 26 59  1  0  0  0  0
 26 60  1  0  0  0  0
 26 61  1  0  0  0  0
 27 62  1  0  0  0  0
 27 63  1  0  0  0  0
 28 64  1  0  0  0  0
 28 65  1  0  0  0  0
 29 66  1  0  0  0  0
 29 67  1  0  0  0  0
 33 68  1  0  0  0  0
 34 69  1  0  0  0  0
M  CHG  1  33   1
M  END
> <SMILES>
COc1cc2c(cc1OCc1ccccc1)N(CC12CCN(CCO)CC1)c1ccn2ccnc2c1

> <FORMATTED_ID>
H3D-013429

> <MOLFORMULA>
C29H32N4O3

> <Exact Mass>
484.25

> <XLogP>
5.26

> <TPSA_NOPS>
62.5

> <s_m_source_file>
ligprep_h3d.sdf

> <i_m_source_file_index>
5136

> <i_lp_mmshare_version>
55123

> <i_f3d_flags>
0

> <s_epik_input>
W2NIXTFbY0hdW2NIXVtjSF1bY0hdYzFbQ0gyXU9jKGMoW2NIXTIpT1tDSDNdKVtjSF1jKE4oW0NIMl0zKWMoW2NIXVtjSF00KVtjSF1jKG40NSluW2NIXVtjSF01KWMyQzM2W0NIMl1bQ0gyXU4oW0NIMl1bQ0gyXTYpW0NIMl1bQ0gyXVtPSF0=

> <s_epik_cmdline>
J2VwaWtfcHl0aG9uJywgJy1waHQnLCAnMC41JywgJy1waCcsICc3LjUnLCAnLXRuJywgJzgnLCAnLW1hJywgJzUwMCcsICctaW1hZScsICc8aW5maWxlLm1hZT4nLCAnLW9tYWUnLCAnPG91dGZpbGUubWFlPic=

> <r_lp_tautomer_probability>
1

> <r_epik_Ionization_Penalty>
0.448959

> <r_epik_Ionization_Penalty_Charging>
0.448957

> <r_epik_Ionization_Penalty_Neutral>
1.47262e-06

> <r_epik_State_Penalty>
0.473113

> <r_epik_Charging_Adjusted_Penalty>
0.92207

> <i_epik_Tot_Q>
1

> <i_epik_Tot_abs_Q>
1

> <s_lp_Force_Field>
S-OPLS

> <r_lp_Energy>
70.1893

> <b_lp_Chiralities_Consistent>
1

> <s_lp_Variant>
ligprep_h3d.sdf:5136-2

> <ROCS_ShapeQuery>
_7L13

> <ROCS_TanimotoCombo>
0.762 

> <ROCS_ShapeTanimoto>
0.673 

> <ROCS_ColorTanimoto>
0.088 

> <ROCS_RefTversky>
0.807 

> <ROCS_RefColorTversky>
0.195 

> <ROCS_RefTverskyCombo>
1.001 

> <ROCS_FitTversky>
0.803 

> <ROCS_FitColorTversky>
0.139 

> <ROCS_FitTverskyCombo>
0.942 

> <ROCS_ColorScore>
-1.791

> <ROCS_Overlap>
1339.995

> <ROCS_Rank>
153                 

$$$$
ligprep_h3d.sdf:5323_1261
  -OEChem-08212117123D

 73 79  0     0  0  0  0  0  0999 V2000
  -19.4861   -6.5955  -36.1752 C   0  0  0  0  0  0  0  0  0  0  0  0
  -20.5307   -7.0614  -35.3769 C   0  0  0  0  0  0  0  0  0  0  0  0
  -18.4197   -5.9072  -35.5966 C   0  0  0  0  0  0  0  0  0  0  0  0
  -20.5091   -6.8389  -34.0001 C   0  0  0  0  0  0  0  0  0  0  0  0
  -18.3980   -5.6847  -34.2198 C   0  0  0  0  0  0  0  0  0  0  0  0
  -27.4618   -4.5084  -24.2555 C   0  0  0  0  0  0  0  0  0  0  0  0
  -22.6770   -4.1773  -29.1227 C   0  0  0  0  0  0  0  0  0  0  0  0
  -19.9052   -4.6849  -29.2841 C   0  0  0  0  0  0  0  0  0  0  0  0
  -28.5300   -5.1609  -23.6901 C   0  0  0  0  0  0  0  0  0  0  0  0
  -14.6681   -5.4891  -25.6397 C   0  0  0  0  0  0  0  0  0  0  0  0
  -14.7632   -6.6489  -24.9162 C   0  0  0  0  0  0  0  0  0  0  0  0
  -21.9130   -4.3084  -27.9696 C   0  0  0  0  0  0  0  0  0  0  0  0
  -19.4427   -6.1505  -33.4215 C   0  0  0  0  0  0  0  0  0  0  0  0
  -20.5424   -4.5595  -28.0581 C   0  0  0  0  0  0  0  0  0  0  0  0
  -22.0491   -4.3012  -30.3636 C   0  0  0  0  0  0  0  0  0  0  0  0
  -20.6725   -4.5533  -30.4432 C   0  0  0  0  0  0  0  0  0  0  0  0
  -26.5526   -4.3368  -23.1946 C   0  0  0  0  0  0  0  0  0  0  0  0
  -16.8067   -6.0642  -25.5217 C   0  0  0  0  0  0  0  0  0  0  0  0
  -18.2705   -5.9501  -25.7616 C   0  0  0  0  0  0  0  0  0  0  0  0
  -17.6850   -3.9287  -26.9733 C   0  0  0  0  0  0  0  0  0  0  0  0
  -16.3646   -4.0561  -26.7418 C   0  0  0  0  0  0  0  0  0  0  0  0
  -18.6905   -4.8873  -26.4818 C   0  0  0  0  0  0  0  0  0  0  0  0
  -23.4055   -5.3094  -26.1994 C   0  0  0  0  0  0  0  0  0  0  0  0
  -22.9565   -2.8232  -26.2176 C   0  0  0  0  0  0  0  0  0  0  0  0
  -21.0321   -4.4513  -25.7702 C   0  0  0  0  0  0  0  0  0  0  0  0
  -23.9575   -5.1902  -24.7834 C   0  0  0  0  0  0  0  0  0  0  0  0
  -23.5115   -2.7218  -24.8014 C   0  0  0  0  0  0  0  0  0  0  0  0
  -22.3726   -4.2146  -26.5283 C   0  0  0  0  0  0  0  0  0  0  0  0
  -22.9144   -2.8624  -32.0479 C   0  0  0  0  0  0  0  0  0  0  0  0
  -19.4188   -5.9106  -31.9405 C   0  0  0  0  0  0  0  0  0  0  0  0
  -25.2050   -3.6791  -23.2436 C   0  0  0  0  0  0  0  0  0  0  0  0
  -27.0038   -4.8396  -22.0424 N   0  0  0  0  0  0  0  0  0  0  0  0
  -28.2084   -5.3334  -22.3760 N   0  0  0  0  0  0  0  0  0  0  0  0
  -15.9520   -5.1439  -26.0061 N   0  0  0  0  0  0  0  0  0  0  0  0
  -16.0968   -6.9813  -24.8595 N   0  3  0  0  0  0  0  0  0  0  0  0
  -19.9855   -4.6522  -26.7783 N   0  0  0  0  0  0  0  0  0  0  0  0
  -24.5336   -3.8101  -24.5832 N   0  3  0  0  0  0  0  0  0  0  0  0
  -22.7908   -4.1730  -31.5003 O   0  0  0  0  0  0  0  0  0  0  0  0
  -20.0665   -4.6723  -31.6592 O   0  0  0  0  0  0  0  0  0  0  0  0
  -19.5025   -6.7700  -37.2470 H   0  0  0  0  0  0  0  0  0  0  0  0
  -21.3606   -7.5983  -35.8270 H   0  0  0  0  0  0  0  0  0  0  0  0
  -17.6057   -5.5453  -36.2177 H   0  0  0  0  0  0  0  0  0  0  0  0
  -21.3274   -7.2053  -33.3859 H   0  0  0  0  0  0  0  0  0  0  0  0
  -17.5631   -5.1473  -33.7778 H   0  0  0  0  0  0  0  0  0  0  0  0
  -27.3609   -4.2031  -25.2868 H   0  0  0  0  0  0  0  0  0  0  0  0
  -23.7434   -3.9820  -29.0635 H   0  0  0  0  0  0  0  0  0  0  0  0
  -18.8409   -4.8792  -29.3598 H   0  0  0  0  0  0  0  0  0  0  0  0
  -29.4689   -5.5095  -24.0955 H   0  0  0  0  0  0  0  0  0  0  0  0
  -13.8567   -4.8567  -25.9467 H   0  0  0  0  0  0  0  0  0  0  0  0
  -14.0696   -7.3009  -24.4233 H   0  0  0  0  0  0  0  0  0  0  0  0
  -18.9399   -6.7021  -25.3624 H   0  0  0  0  0  0  0  0  0  0  0  0
  -18.0405   -3.0800  -27.5509 H   0  0  0  0  0  0  0  0  0  0  0  0
  -15.6183   -3.3580  -27.0980 H   0  0  0  0  0  0  0  0  0  0  0  0
  -22.9653   -6.3064  -26.3322 H   0  0  0  0  0  0  0  0  0  0  0  0
  -24.2462   -5.2583  -26.9045 H   0  0  0  0  0  0  0  0  0  0  0  0
  -23.7638   -2.5869  -26.9239 H   0  0  0  0  0  0  0  0  0  0  0  0
  -22.1958   -2.0451  -26.3635 H   0  0  0  0  0  0  0  0  0  0  0  0
  -20.7658   -3.5958  -25.1376 H   0  0  0  0  0  0  0  0  0  0  0  0
  -21.0825   -5.3330  -25.1198 H   0  0  0  0  0  0  0  0  0  0  0  0
  -24.7691   -5.9091  -24.6291 H   0  0  0  0  0  0  0  0  0  0  0  0
  -23.1884   -5.3446  -24.0196 H   0  0  0  0  0  0  0  0  0  0  0  0
  -22.7348   -2.8358  -24.0380 H   0  0  0  0  0  0  0  0  0  0  0  0
  -24.0198   -1.7624  -24.6591 H   0  0  0  0  0  0  0  0  0  0  0  0
  -23.5295   -2.9002  -32.9503 H   0  0  0  0  0  0  0  0  0  0  0  0
  -21.9222   -2.4711  -32.2864 H   0  0  0  0  0  0  0  0  0  0  0  0
  -23.3926   -2.2128  -31.3108 H   0  0  0  0  0  0  0  0  0  0  0  0
  -19.9362   -6.7140  -31.4051 H   0  0  0  0  0  0  0  0  0  0  0  0
  -18.3885   -5.8693  -31.5710 H   0  0  0  0  0  0  0  0  0  0  0  0
  -25.2799   -2.6068  -23.0329 H   0  0  0  0  0  0  0  0  0  0  0  0
  -24.5239   -4.1173  -22.5062 H   0  0  0  0  0  0  0  0  0  0  0  0
  -28.7613   -5.7783  -21.6541 H   0  0  0  0  0  0  0  0  0  0  0  0
  -16.4809   -7.7955  -24.3881 H   0  0  0  0  0  0  0  0  0  0  0  0
  -25.2708   -3.6820  -25.2901 H   0  0  0  0  0  0  0  0  0  0  0  0
  1  2  2  0  0  0  0
  1  3  1  0  0  0  0
  2  4  1  0  0  0  0
  3  5  2  0  0  0  0
  4 13  2  0  0  0  0
  5 13  1  0  0  0  0
  6  9  2  0  0  0  0
  6 17  1  0  0  0  0
  7 12  1  0  0  0  0
  7 15  2  0  0  0  0
  8 14  1  0  0  0  0
  8 16  2  0  0  0  0
  9 33  1  0  0  0  0
 10 11  2  0  0  0  0
 10 34  1  0  0  0  0
 11 35  1  0  0  0  0
 12 14  2  0  0  0  0
 12 28  1  0  0  0  0
 13 30  1  0  0  0  0
 14 36  1  0  0  0  0
 15 16  1  0  0  0  0
 15 38  1  0  0  0  0
 16 39  1  0  0  0  0
 17 31  1  0  0  0  0
 17 32  2  0  0  0  0
 18 19  1  0  0  0  0
 18 34  1  0  0  0  0
 18 35  2  0  0  0  0
 19 22  2  0  0  0  0
 20 21  2  0  0  0  0
 20 22  1  0  0  0  0
 21 34  1  0  0  0  0
 22 36  1  0  0  0  0
 23 26  1  0  0  0  0
 23 28  1  0  0  0  0
 24 27  1  0  0  0  0
 24 28  1  0  0  0  0
 25 28  1  0  0  0  0
 25 36  1  0  0  0  0
 26 37  1  0  0  0  0
 27 37  1  0  0  0  0
 29 38  1  0  0  0  0
 30 39  1  0  0  0  0
 31 37  1  0  0  0  0
 32 33  1  0  0  0  0
  1 40  1  0  0  0  0
  2 41  1  0  0  0  0
  3 42  1  0  0  0  0
  4 43  1  0  0  0  0
  5 44  1  0  0  0  0
  6 45  1  0  0  0  0
  7 46  1  0  0  0  0
  8 47  1  0  0  0  0
  9 48  1  0  0  0  0
 10 49  1  0  0  0  0
 11 50  1  0  0  0  0
 19 51  1  0  0  0  0
 20 52  1  0  0  0  0
 21 53  1  0  0  0  0
 23 54  1  0  0  0  0
 23 55  1  0  0  0  0
 24 56  1  0  0  0  0
 24 57  1  0  0  0  0
 25 58  1  0  0  0  0
 25 59  1  0  0  0  0
 26 60  1  0  0  0  0
 26 61  1  0  0  0  0
 27 62  1  0  0  0  0
 27 63  1  0  0  0  0
 29 64  1  0  0  0  0
 29 65  1  0  0  0  0
 29 66  1  0  0  0  0
 30 67  1  0  0  0  0
 30 68  1  0  0  0  0
 31 69  1  0  0  0  0
 31 70  1  0  0  0  0
 33 71  1  0  0  0  0
 35 72  1  0  0  0  0
 37 73  1  0  0  0  0
M  CHG  2  35   1  37   1
M  END
> <SMILES>
COc1cc2c(cc1OCc1ccccc1)N(CC12CCN(CC1)Cc1cc[nH]n1)c1ccn2ccnc2c1

> <FORMATTED_ID>
H3D-014874

> <MOLFORMULA>
C31H32N6O2

> <Exact Mass>
520.26

> <XLogP>
6.99

> <TPSA_NOPS>
70.9

> <s_m_source_file>
ligprep_h3d.sdf

> <i_m_source_file_index>
5323

> <i_lp_mmshare_version>
55123

> <i_f3d_flags>
0

> <s_epik_input>
W2NIXTFbY0hdW2NIXVtjSF1bY0hdYzFbQ0gyXU9jKGMoW2NIXTIpT1tDSDNdKVtjSF1jKE4oW0NIMl0zKWMoW2NIXVtjSF00KVtjSF1jKG40NSluW2NIXVtjSF01KWMyQzM2W0NIMl1bQ0gyXU4oW0NIMl1bQ0gyXTYpW0NIMl1jN1tjSF1bY0hdbltuSF03

> <s_epik_cmdline>
J2VwaWtfcHl0aG9uJywgJy1waHQnLCAnMC41JywgJy1waCcsICc3LjUnLCAnLXRuJywgJzgnLCAnLW1hJywgJzUwMCcsICctaW1hZScsICc8aW5maWxlLm1hZT4nLCAnLW9tYWUnLCAnPG91dGZpbGUubWFlPic=

> <r_lp_tautomer_probability>
0.5

> <r_epik_Ionization_Penalty>
0.495309

> <r_epik_Ionization_Penalty_Charging>
0.0979262

> <r_epik_Ionization_Penalty_Neutral>
0.397382

> <r_epik_State_Penalty>
0.88723

> <r_epik_Charging_Adjusted_Penalty>
0.985156

> <i_epik_Tot_Q>
2

> <i_epik_Tot_abs_Q>
2

> <s_lp_Force_Field>
S-OPLS

> <r_lp_Energy>
79.2666

> <b_lp_Chiralities_Consistent>
1

> <s_lp_Variant>
ligprep_h3d.sdf:5323-1

> <ROCS_ShapeQuery>
_7L13

> <ROCS_TanimotoCombo>
0.713 

> <ROCS_ShapeTanimoto>
0.628 

> <ROCS_ColorTanimoto>
0.085 

> <ROCS_RefTversky>
0.807 

> <ROCS_RefColorTversky>
0.202 

> <ROCS_RefTverskyCombo>
1.009 

> <ROCS_FitTversky>
0.739 

> <ROCS_FitColorTversky>
0.128 

> <ROCS_FitTverskyCombo>
0.866 

> <ROCS_ColorScore>
-1.884

> <ROCS_Overlap>
1346.459

> <ROCS_Rank>
154                 

$$$$
ligprep_h3d.sdf:5361_821
  -OEChem-08212117123D

 71 76  0     0  0  0  0  0  0999 V2000
  -19.7394   -7.0435  -35.8668 C   0  0  0  0  0  0  0  0  0  0  0  0
  -20.3959   -7.7157  -34.8359 C   0  0  0  0  0  0  0  0  0  0  0  0
  -19.0293   -5.8739  -35.5956 C   0  0  0  0  0  0  0  0  0  0  0  0
  -20.3424   -7.2183  -33.5338 C   0  0  0  0  0  0  0  0  0  0  0  0
  -18.9757   -5.3765  -34.2935 C   0  0  0  0  0  0  0  0  0  0  0  0
  -22.9882   -4.0923  -28.8688 C   0  0  0  0  0  0  0  0  0  0  0  0
  -20.2721   -4.6903  -29.3131 C   0  0  0  0  0  0  0  0  0  0  0  0
  -14.7773   -6.1731  -26.2022 C   0  0  0  0  0  0  0  0  0  0  0  0
  -14.3044   -5.0723  -25.5371 C   0  0  0  0  0  0  0  0  0  0  0  0
  -22.1126   -4.2728  -27.8049 C   0  0  0  0  0  0  0  0  0  0  0  0
  -19.6323   -6.0487  -33.2626 C   0  0  0  0  0  0  0  0  0  0  0  0
  -20.7603   -4.5684  -28.0171 C   0  0  0  0  0  0  0  0  0  0  0  0
  -22.4949   -4.2060  -30.1679 C   0  0  0  0  0  0  0  0  0  0  0  0
  -21.1452   -4.5045  -30.3886 C   0  0  0  0  0  0  0  0  0  0  0  0
  -16.4576   -4.7534  -25.9200 C   0  0  0  0  0  0  0  0  0  0  0  0
  -17.8524   -4.2455  -26.0193 C   0  0  0  0  0  0  0  0  0  0  0  0
  -18.2918   -6.3386  -27.1695 C   0  0  0  0  0  0  0  0  0  0  0  0
  -17.0220   -6.7746  -27.0656 C   0  0  0  0  0  0  0  0  0  0  0  0
  -18.7495   -5.0415  -26.6410 C   0  0  0  0  0  0  0  0  0  0  0  0
  -23.6637   -5.4942  -24.4595 C   0  0  0  0  0  0  0  0  0  0  0  0
  -23.5303   -2.9698  -24.4192 C   0  0  0  0  0  0  0  0  0  0  0  0
  -23.2405   -5.4948  -25.9314 C   0  0  0  0  0  0  0  0  0  0  0  0
  -23.1480   -2.9607  -25.9003 C   0  0  0  0  0  0  0  0  0  0  0  0
  -20.9692   -4.3051  -25.7343 C   0  0  0  0  0  0  0  0  0  0  0  0
  -24.3775   -4.1963  -24.0801 C   0  0  0  0  0  0  0  0  0  0  0  0
  -22.4159   -4.2488  -26.3249 C   0  0  0  0  0  0  0  0  0  0  0  0
  -23.4724   -2.7059  -31.7331 C   0  0  0  0  0  0  0  0  0  0  0  0
  -26.9975   -5.4654  -23.0882 C   0  0  0  0  0  0  0  0  0  0  0  0
  -19.5744   -5.5129  -31.8622 C   0  0  0  0  0  0  0  0  0  0  0  0
  -16.1194   -5.9524  -26.4300 N   0  0  0  0  0  0  0  0  0  0  0  0
  -15.3649   -4.2113  -25.3761 N   0  3  0  0  0  0  0  0  0  0  0  0
  -20.0540   -4.7128  -26.8072 N   0  0  0  0  0  0  0  0  0  0  0  0
  -24.6740   -4.1994  -22.6637 N   0  0  0  0  0  0  0  0  0  0  0  0
  -26.9033   -2.8884  -22.6407 O   0  0  0  0  0  0  0  0  0  0  0  0
  -26.3594   -4.4769  -20.7599 O   0  0  0  0  0  0  0  0  0  0  0  0
  -23.3423   -4.0302  -31.2209 O   0  0  0  0  0  0  0  0  0  0  0  0
  -20.6666   -4.6192  -31.6605 O   0  0  0  0  0  0  0  0  0  0  0  0
  -26.2989   -4.1167  -22.1635 S   0  0  0  0  0  0  0  0  0  0  0  0
  -19.7801   -7.4317  -36.8803 H   0  0  0  0  0  0  0  0  0  0  0  0
  -20.9480   -8.6270  -35.0466 H   0  0  0  0  0  0  0  0  0  0  0  0
  -18.5172   -5.3509  -36.3978 H   0  0  0  0  0  0  0  0  0  0  0  0
  -20.8571   -7.7486  -32.7369 H   0  0  0  0  0  0  0  0  0  0  0  0
  -18.4202   -4.4645  -34.0917 H   0  0  0  0  0  0  0  0  0  0  0  0
  -24.0379   -3.8769  -28.6962 H   0  0  0  0  0  0  0  0  0  0  0  0
  -19.2286   -4.9205  -29.5041 H   0  0  0  0  0  0  0  0  0  0  0  0
  -14.3397   -7.0906  -26.5477 H   0  0  0  0  0  0  0  0  0  0  0  0
  -13.3545   -4.7655  -25.1463 H   0  0  0  0  0  0  0  0  0  0  0  0
  -18.1020   -3.2779  -25.6019 H   0  0  0  0  0  0  0  0  0  0  0  0
  -19.0266   -6.9659  -27.6663 H   0  0  0  0  0  0  0  0  0  0  0  0
  -16.6758   -7.7251  -27.4503 H   0  0  0  0  0  0  0  0  0  0  0  0
  -24.3245   -6.3500  -24.2733 H   0  0  0  0  0  0  0  0  0  0  0  0
  -22.7875   -5.6449  -23.8169 H   0  0  0  0  0  0  0  0  0  0  0  0
  -22.6258   -2.9481  -23.7984 H   0  0  0  0  0  0  0  0  0  0  0  0
  -24.0868   -2.0546  -24.1824 H   0  0  0  0  0  0  0  0  0  0  0  0
  -22.6790   -6.4141  -26.1437 H   0  0  0  0  0  0  0  0  0  0  0  0
  -24.1488   -5.5466  -26.5475 H   0  0  0  0  0  0  0  0  0  0  0  0
  -24.0659   -2.8365  -26.4900 H   0  0  0  0  0  0  0  0  0  0  0  0
  -22.5327   -2.0769  -26.1129 H   0  0  0  0  0  0  0  0  0  0  0  0
  -20.6554   -3.3159  -25.3746 H   0  0  0  0  0  0  0  0  0  0  0  0
  -20.8944   -4.9930  -24.8847 H   0  0  0  0  0  0  0  0  0  0  0  0
  -25.3318   -4.1361  -24.6356 H   0  0  0  0  0  0  0  0  0  0  0  0
  -24.1765   -2.7051  -32.5688 H   0  0  0  0  0  0  0  0  0  0  0  0
  -22.4956   -2.3452  -32.0654 H   0  0  0  0  0  0  0  0  0  0  0  0
  -23.8493   -2.0540  -30.9415 H   0  0  0  0  0  0  0  0  0  0  0  0
  -28.0619   -5.5273  -22.8561 H   0  0  0  0  0  0  0  0  0  0  0  0
  -26.8488   -5.2679  -24.1509 H   0  0  0  0  0  0  0  0  0  0  0  0
  -26.4880   -6.3844  -22.7948 H   0  0  0  0  0  0  0  0  0  0  0  0
  -19.6370   -6.3246  -31.1293 H   0  0  0  0  0  0  0  0  0  0  0  0
  -18.6349   -4.9765  -31.6908 H   0  0  0  0  0  0  0  0  0  0  0  0
  -15.3234   -3.3059  -24.9163 H   0  0  0  0  0  0  0  0  0  0  0  0
  -24.0391   -4.7876  -22.1165 H   0  0  0  0  0  0  0  0  0  0  0  0
  1  2  2  0  0  0  0
  1  3  1  0  0  0  0
  2  4  1  0  0  0  0
  3  5  2  0  0  0  0
  4 11  2  0  0  0  0
  5 11  1  0  0  0  0
  6 10  1  0  0  0  0
  6 13  2  0  0  0  0
  7 12  1  0  0  0  0
  7 14  2  0  0  0  0
  8  9  2  0  0  0  0
  8 30  1  0  0  0  0
  9 31  1  0  0  0  0
 10 12  2  0  0  0  0
 10 26  1  0  0  0  0
 11 29  1  0  0  0  0
 12 32  1  0  0  0  0
 13 14  1  0  0  0  0
 13 36  1  0  0  0  0
 14 37  1  0  0  0  0
 15 16  1  0  0  0  0
 15 30  1  0  0  0  0
 15 31  2  0  0  0  0
 16 19  2  0  0  0  0
 17 18  2  0  0  0  0
 17 19  1  0  0  0  0
 18 30  1  0  0  0  0
 19 32  1  0  0  0  0
 20 22  1  0  0  0  0
 20 25  1  0  0  0  0
 21 23  1  0  0  0  0
 21 25  1  0  0  0  0
 22 26  1  0  0  0  0
 23 26  1  0  0  0  0
 24 26  1  0  0  0  0
 24 32  1  0  0  0  0
 25 33  1  0  0  0  0
 27 36  1  0  0  0  0
 28 38  1  0  0  0  0
 29 37  1  0  0  0  0
 33 38  1  0  0  0  0
 34 38  2  0  0  0  0
 35 38  2  0  0  0  0
  1 39  1  0  0  0  0
  2 40  1  0  0  0  0
  3 41  1  0  0  0  0
  4 42  1  0  0  0  0
  5 43  1  0  0  0  0
  6 44  1  0  0  0  0
  7 45  1  0  0  0  0
  8 46  1  0  0  0  0
  9 47  1  0  0  0  0
 16 48  1  0  0  0  0
 17 49  1  0  0  0  0
 18 50  1  0  0  0  0
 20 51  1  0  0  0  0
 20 52  1  0  0  0  0
 21 53  1  0  0  0  0
 21 54  1  0  0  0  0
 22 55  1  0  0  0  0
 22 56  1  0  0  0  0
 23 57  1  0  0  0  0
 23 58  1  0  0  0  0
 24 59  1  0  0  0  0
 24 60  1  0  0  0  0
 25 61  1  0  0  0  0
 27 62  1  0  0  0  0
 27 63  1  0  0  0  0
 27 64  1  0  0  0  0
 28 65  1  0  0  0  0
 28 66  1  0  0  0  0
 28 67  1  0  0  0  0
 29 68  1  0  0  0  0
 29 69  1  0  0  0  0
 31 70  1  0  0  0  0
 33 71  1  0  0  0  0
M  CHG  1  31   1
M  END
> <SMILES>
COc1cc2c(cc1OCc1ccccc1)N(CC12CCC(CC1)NS(=O)(=O)C)c1ccn2ccnc2c1

> <FORMATTED_ID>
H3D-015082

> <MOLFORMULA>
C29H32N4O4S

> <Exact Mass>
532.21

> <XLogP>
5.98

> <TPSA_NOPS>
93.6

> <s_m_source_file>
ligprep_h3d.sdf

> <i_m_source_file_index>
5361

> <i_lp_mmshare_version>
55123

> <i_f3d_flags>
0

> <s_epik_input>
W2NIXTFbY0hdW2NIXVtjSF1bY0hdYzFbQ0gyXU9jKGMoW2NIXTIpT1tDSDNdKVtjSF1jKE4oW0NIMl0zKWMoW2NIXVtjSF00KVtjSF1jKG40NSluW2NIXVtjSF01KWMyW0NAXTM2W0NIMl1bQ0gyXVtDQEhdKFtDSDJdW0NIMl02KVtOSF1TKD1PKSg9TylbQ0gzXQ==

> <s_epik_cmdline>
J2VwaWtfcHl0aG9uJywgJy1waHQnLCAnMC41JywgJy1waCcsICc3LjUnLCAnLXRuJywgJzgnLCAnLW1hJywgJzUwMCcsICctaW1hZScsICc8aW5maWxlLm1hZT4nLCAnLW9tYWUnLCAnPG91dGZpbGUubWFlPic=

> <r_lp_tautomer_probability>
1

> <r_epik_Ionization_Penalty>
0.32538

> <r_epik_Ionization_Penalty_Charging>
0

> <r_epik_Ionization_Penalty_Neutral>
0.32538

> <r_epik_State_Penalty>
0.320154

> <r_epik_Charging_Adjusted_Penalty>
0.320154

> <i_epik_Tot_Q>
1

> <i_epik_Tot_abs_Q>
1

> <s_lp_Force_Field>
S-OPLS

> <r_lp_Energy>
54.9272

> <b_lp_Chiralities_Consistent>
1

> <s_lp_Variant>
ligprep_h3d.sdf:5361-1

> <ROCS_ShapeQuery>
_7L13

> <ROCS_TanimotoCombo>
0.757 

> <ROCS_ShapeTanimoto>
0.652 

> <ROCS_ColorTanimoto>
0.105 

> <ROCS_RefTversky>
0.807 

> <ROCS_RefColorTversky>
0.228 

> <ROCS_RefTverskyCombo>
1.034 

> <ROCS_FitTversky>
0.773 

> <ROCS_FitColorTversky>
0.163 

> <ROCS_FitTverskyCombo>
0.937 

> <ROCS_ColorScore>
-2.095

> <ROCS_Overlap>
1342.762

> <ROCS_Rank>
155                 

$$$$
ligprep_h3d.sdf:1354_1639
  -OEChem-08212117123D

 68 73  0     1  0  0  0  0  0999 V2000
  -20.8412   -4.0326  -32.5006 C   0  0  0  0  0  0  0  0  0  0  0  0
  -20.0302   -6.2037  -31.8182 C   0  0  0  0  0  0  0  0  0  0  0  0
  -20.3163   -4.2376  -33.7766 C   0  0  0  0  0  0  0  0  0  0  0  0
  -19.5054   -6.4087  -33.0942 C   0  0  0  0  0  0  0  0  0  0  0  0
  -16.7897   -5.6991  -26.6044 C   0  0  0  0  0  0  0  0  0  0  0  0
  -23.1450   -4.3840  -28.7639 C   0  0  0  0  0  0  0  0  0  0  0  0
  -20.7131   -4.3888  -25.3941 C   0  0  0  0  0  0  0  0  0  0  0  0
  -16.7393   -4.2992  -26.7437 C   0  0  0  0  0  0  0  0  0  0  0  0
  -20.9583   -4.5980  -27.7901 C   0  0  0  0  0  0  0  0  0  0  0  0
  -20.6981   -5.0156  -31.5214 C   0  0  0  0  0  0  0  0  0  0  0  0
  -21.2448   -4.8019  -30.1917 C   0  0  0  0  0  0  0  0  0  0  0  0
  -19.6484   -5.4257  -34.0734 C   0  0  0  0  0  0  0  0  0  0  0  0
  -22.6093   -4.5906  -30.0376 C   0  0  0  0  0  0  0  0  0  0  0  0
  -20.4193   -4.8058  -29.0711 C   0  0  0  0  0  0  0  0  0  0  0  0
  -22.3428   -4.3830  -27.6261 C   0  0  0  0  0  0  0  0  0  0  0  0
  -20.1504   -4.5969  -26.6451 C   0  0  0  0  0  0  0  0  0  0  0  0
  -22.0771   -4.1874  -25.3334 C   0  0  0  0  0  0  0  0  0  0  0  0
  -18.1308   -5.9905  -26.5483 C   0  0  0  0  0  0  0  0  0  0  0  0
  -20.5012   -8.5714  -36.8958 C   0  0  0  0  0  0  0  0  0  0  0  0
  -22.7299   -3.9651  -24.0547 C   0  0  0  0  0  0  0  0  0  0  0  0
  -24.2993   -4.8734  -21.5582 C   0  0  0  0  0  0  0  0  0  0  0  0
  -26.3563   -4.1705  -22.8390 C   0  0  0  0  0  0  0  0  0  0  0  0
  -25.5908   -2.9265  -22.5117 C   0  0  0  0  0  0  0  0  0  0  0  0
  -18.6059   -7.3577  -37.2460 C   0  0  0  0  0  0  0  0  0  0  0  0
  -19.0676   -7.1103  -35.8245 C   0  0  1  0  0  0  0  0  0  0  0  0
  -24.8473   -4.2256  -22.7357 C   0  0  0  0  0  0  0  0  0  0  0  0
  -23.5410   -4.5752  -31.2078 C   0  0  0  0  0  0  0  0  0  0  0  0
  -18.9548   -5.0405  -29.3155 C   0  0  0  0  0  0  0  0  0  0  0  0
  -18.8267   -7.2845  -26.4065 C   0  0  0  0  0  0  0  0  0  0  0  0
  -19.0870   -5.6448  -35.4375 C   0  0  0  0  0  0  0  0  0  0  0  0
  -17.9519   -3.7400  -26.7744 N   0  0  0  0  0  0  0  0  0  0  0  0
  -22.8917   -4.1808  -26.4133 N   0  0  0  0  0  0  0  0  0  0  0  0
  -18.7769   -4.7940  -26.6537 N   0  0  0  0  0  0  0  0  0  0  0  0
  -20.3639   -7.7114  -35.8283 N   0  0  0  0  0  0  0  0  0  0  0  0
  -24.0569   -4.3960  -23.9336 N   0  0  0  0  0  0  0  0  0  0  0  0
  -24.0969   -4.1143  -20.5703 O   0  5  0  0  0  0  0  0  0  0  0  0
  -21.4373   -9.3278  -37.1126 O   0  0  0  0  0  0  0  0  0  0  0  0
  -22.1265   -3.3964  -23.1266 O   0  0  0  0  0  0  0  0  0  0  0  0
  -24.0981   -6.1142  -21.6816 O   0  0  0  0  0  0  0  0  0  0  0  0
  -19.3952   -8.4700  -37.7027 O   0  0  0  0  0  0  0  0  0  0  0  0
  -21.3586   -3.1009  -32.2845 H   0  0  0  0  0  0  0  0  0  0  0  0
  -19.9111   -6.9797  -31.0658 H   0  0  0  0  0  0  0  0  0  0  0  0
  -20.4315   -3.4658  -34.5330 H   0  0  0  0  0  0  0  0  0  0  0  0
  -18.9869   -7.3377  -33.3169 H   0  0  0  0  0  0  0  0  0  0  0  0
  -15.9673   -6.3975  -26.5525 H   0  0  0  0  0  0  0  0  0  0  0  0
  -24.2168   -4.2197  -28.6579 H   0  0  0  0  0  0  0  0  0  0  0  0
  -20.1096   -4.3831  -24.4906 H   0  0  0  0  0  0  0  0  0  0  0  0
  -15.8694   -3.6633  -26.8242 H   0  0  0  0  0  0  0  0  0  0  0  0
  -26.9499   -4.6182  -22.0503 H   0  0  0  0  0  0  0  0  0  0  0  0
  -26.8081   -4.2386  -23.8219 H   0  0  0  0  0  0  0  0  0  0  0  0
  -25.5289   -2.1592  -23.2748 H   0  0  0  0  0  0  0  0  0  0  0  0
  -25.6699   -2.5378  -21.5031 H   0  0  0  0  0  0  0  0  0  0  0  0
  -18.7862   -6.5127  -37.9191 H   0  0  0  0  0  0  0  0  0  0  0  0
  -17.5477   -7.6325  -37.2887 H   0  0  0  0  0  0  0  0  0  0  0  0
  -18.4539   -7.6844  -35.1193 H   0  0  0  0  0  0  0  0  0  0  0  0
  -23.6301   -3.5587  -31.6059 H   0  0  0  0  0  0  0  0  0  0  0  0
  -23.1821   -5.2352  -32.0059 H   0  0  0  0  0  0  0  0  0  0  0  0
  -24.5383   -4.9295  -30.9220 H   0  0  0  0  0  0  0  0  0  0  0  0
  -18.7392   -6.1110  -29.2725 H   0  0  0  0  0  0  0  0  0  0  0  0
  -18.6598   -4.6556  -30.2956 H   0  0  0  0  0  0  0  0  0  0  0  0
  -18.3499   -4.5235  -28.5654 H   0  0  0  0  0  0  0  0  0  0  0  0
  -18.9932   -7.5319  -25.3453 H   0  0  0  0  0  0  0  0  0  0  0  0
  -19.8093   -7.2830  -26.9084 H   0  0  0  0  0  0  0  0  0  0  0  0
  -18.2552   -8.1133  -26.8583 H   0  0  0  0  0  0  0  0  0  0  0  0
  -19.6674   -5.0825  -36.1866 H   0  0  0  0  0  0  0  0  0  0  0  0
  -18.0632   -5.2423  -35.5007 H   0  0  0  0  0  0  0  0  0  0  0  0
  -21.0858   -7.5295  -35.1379 H   0  0  0  0  0  0  0  0  0  0  0  0
  -24.5229   -4.7971  -24.7409 H   0  0  0  0  0  0  0  0  0  0  0  0
  1  3  1  0  0  0  0
  1 10  2  0  0  0  0
  2  4  2  0  0  0  0
  2 10  1  0  0  0  0
  3 12  2  0  0  0  0
  4 12  1  0  0  0  0
  5  8  1  0  0  0  0
  5 18  2  0  0  0  0
  6 13  2  0  0  0  0
  6 15  1  0  0  0  0
  7 16  1  0  0  0  0
  7 17  2  0  0  0  0
  8 31  2  0  0  0  0
  9 14  1  0  0  0  0
  9 15  1  0  0  0  0
  9 16  2  0  0  0  0
 10 11  1  0  0  0  0
 11 13  1  0  0  0  0
 11 14  2  0  0  0  0
 12 30  1  0  0  0  0
 13 27  1  0  0  0  0
 14 28  1  0  0  0  0
 15 32  2  0  0  0  0
 16 33  1  0  0  0  0
 17 20  1  0  0  0  0
 17 32  1  0  0  0  0
 18 29  1  0  0  0  0
 18 33  1  0  0  0  0
 19 34  1  0  0  0  0
 19 37  2  0  0  0  0
 19 40  1  0  0  0  0
 20 35  1  0  0  0  0
 20 38  2  0  0  0  0
 21 26  1  0  0  0  0
 21 36  1  0  0  0  0
 21 39  2  0  0  0  0
 22 23  1  0  0  0  0
 22 26  1  0  0  0  0
 23 26  1  0  0  0  0
 24 25  1  0  0  0  0
 24 40  1  0  0  0  0
 25 30  1  0  0  0  0
 25 34  1  0  0  0  0
 26 35  1  0  0  0  0
 31 33  1  0  0  0  0
  1 41  1  0  0  0  0
  2 42  1  0  0  0  0
  3 43  1  0  0  0  0
  4 44  1  0  0  0  0
  5 45  1  0  0  0  0
  6 46  1  0  0  0  0
  7 47  1  0  0  0  0
  8 48  1  0  0  0  0
 22 49  1  0  0  0  0
 22 50  1  0  0  0  0
 23 51  1  0  0  0  0
 23 52  1  0  0  0  0
 24 53  1  0  0  0  0
 24 54  1  0  0  0  0
 25 55  1  0  0  0  0
 27 56  1  0  0  0  0
 27 57  1  0  0  0  0
 27 58  1  0  0  0  0
 28 59  1  0  0  0  0
 28 60  1  0  0  0  0
 28 61  1  0  0  0  0
 29 62  1  0  0  0  0
 29 63  1  0  0  0  0
 29 64  1  0  0  0  0
 30 65  1  0  0  0  0
 30 66  1  0  0  0  0
 34 67  1  0  0  0  0
 35 68  1  0  0  0  0
M  CHG  1  36  -1
M  END
> <SMILES>
Cc1cc2nc(cc(c2c(c1-c1ccc(cc1)CC1COC(=O)N1)C)-n1nccc1C)C(=O)NC1(CC1)C(=O)O

> <FORMATTED_ID>
H3D-009172

> <MOLFORMULA>
C30H29N5O5

> <Exact Mass>
539.22

> <XLogP>
3.26

> <TPSA_NOPS>
135.4

> <s_m_source_file>
ligprep_h3d.sdf

> <i_m_source_file_index>
1354

> <i_lp_mmshare_version>
55123

> <i_f3d_flags>
0

> <s_epik_input>
W0NIMl0xW0NIMl1DMShDKD1PKVtPSF0pW05IXUMoPU8pYyhuMilbY0hdYygtbjNuW2NIXVtjSF1jM1tDSDNdKWMoYzI0KWMoW0NIM10pYyhjKFtDSDNdKVtjSF00KS1jNVtjSF1bY0hdYyhbY0hdW2NIXTUpW0NIMl1bQ0BASF02W0NIMl1PQyg9TylbTkhdNg==

> <s_epik_cmdline>
J2VwaWtfcHl0aG9uJywgJy1waHQnLCAnMC41JywgJy1waCcsICc3LjUnLCAnLXRuJywgJzgnLCAnLW1hJywgJzUwMCcsICctaW1hZScsICc8aW5maWxlLm1hZT4nLCAnLW9tYWUnLCAnPG91dGZpbGUubWFlPic=

> <r_lp_tautomer_probability>
1

> <r_epik_Ionization_Penalty>
0.000145952

> <r_epik_Ionization_Penalty_Charging>
0.000123838

> <r_epik_Ionization_Penalty_Neutral>
2.21137e-05

> <r_epik_State_Penalty>
-0

> <r_epik_Charging_Adjusted_Penalty>
0.000123838

> <i_epik_Tot_Q>
-1

> <i_epik_Tot_abs_Q>
1

> <s_epik_Chemistry_Notes>
This compound has an ester and may undergo hydrolysis at high or low pH.

> <s_lp_Force_Field>
S-OPLS

> <r_lp_Energy>
58.2017

> <b_lp_Chiralities_Consistent>
1

> <s_lp_Variant>
ligprep_h3d.sdf:1354-1

> <ROCS_ShapeQuery>
_7L13

> <ROCS_TanimotoCombo>
0.710 

> <ROCS_ShapeTanimoto>
0.614 

> <ROCS_ColorTanimoto>
0.097 

> <ROCS_RefTversky>
0.806 

> <ROCS_RefColorTversky>
0.219 

> <ROCS_RefTverskyCombo>
1.026 

> <ROCS_FitTversky>
0.720 

> <ROCS_FitColorTversky>
0.147 

> <ROCS_FitTverskyCombo>
0.867 

> <ROCS_ColorScore>
-2.029

> <ROCS_Overlap>
1348.118

> <ROCS_Rank>
156                 

$$$$
ligprep_h3d.sdf:754_1370
  -OEChem-08212117123D

 75 81  0     1  0  0  0  0  0999 V2000
  -16.6883   -5.6558  -26.4741 C   0  0  0  0  0  0  0  0  0  0  0  0
  -23.0065   -4.4927  -28.8092 C   0  0  0  0  0  0  0  0  0  0  0  0
  -20.6586   -4.3836  -25.3821 C   0  0  0  0  0  0  0  0  0  0  0  0
  -16.6522   -4.2585  -26.6417 C   0  0  0  0  0  0  0  0  0  0  0  0
  -19.0518   -5.7919  -36.6809 C   0  0  0  0  0  0  0  0  0  0  0  0
  -20.8410   -4.6462  -27.7785 C   0  0  0  0  0  0  0  0  0  0  0  0
  -22.4361   -4.7154  -30.0649 C   0  0  0  0  0  0  0  0  0  0  0  0
  -20.2669   -4.8702  -29.0414 C   0  0  0  0  0  0  0  0  0  0  0  0
  -22.2327   -4.4536  -27.6525 C   0  0  0  0  0  0  0  0  0  0  0  0
  -20.0616   -4.6068  -26.6144 C   0  0  0  0  0  0  0  0  0  0  0  0
  -21.0646   -4.9044  -30.1815 C   0  0  0  0  0  0  0  0  0  0  0  0
  -22.0270   -4.2062  -25.3587 C   0  0  0  0  0  0  0  0  0  0  0  0
  -19.5000   -6.1698  -35.4074 C   0  0  0  0  0  0  0  0  0  0  0  0
  -18.0266   -5.9634  -26.4426 C   0  0  0  0  0  0  0  0  0  0  0  0
  -22.7148   -3.9692  -24.1010 C   0  0  0  0  0  0  0  0  0  0  0  0
  -19.6159   -7.5989  -25.1500 C   0  0  0  0  0  0  0  0  0  0  0  0
  -18.2423   -8.1884  -25.0726 C   0  0  0  0  0  0  0  0  0  0  0  0
  -19.1498   -6.5766  -32.9059 C   0  0  0  0  0  0  0  0  0  0  0  0
  -20.1295   -4.3785  -33.7524 C   0  0  0  0  0  0  0  0  0  0  0  0
  -20.3560   -6.4852  -31.9677 C   0  0  0  0  0  0  0  0  0  0  0  0
  -20.0862   -3.9967  -32.2738 C   0  0  0  0  0  0  0  0  0  0  0  0
  -25.6713   -2.9663  -22.8925 C   0  0  0  0  0  0  0  0  0  0  0  0
  -26.8796   -4.7101  -21.6747 C   0  0  0  0  0  0  0  0  0  0  0  0
  -19.1847   -5.5512  -34.0565 C   0  0  0  0  0  0  0  0  0  0  0  0
  -18.6326   -7.3557  -26.2779 C   0  0  0  0  0  0  0  0  0  0  0  0
  -24.8523   -4.2424  -22.8372 C   0  0  1  0  0  0  0  0  0  0  0  0
  -25.9163   -5.3139  -22.6766 C   0  0  2  0  0  0  0  0  0  0  0  0
  -23.3288   -4.7458  -31.2632 C   0  0  0  0  0  0  0  0  0  0  0  0
  -18.7958   -5.0842  -29.2549 C   0  0  0  0  0  0  0  0  0  0  0  0
  -17.8707   -3.7160  -26.7120 N   0  0  0  0  0  0  0  0  0  0  0  0
  -19.5714   -6.6059  -37.6041 N   0  0  0  0  0  0  0  0  0  0  0  0
  -22.8149   -4.2367  -26.4580 N   0  0  0  0  0  0  0  0  0  0  0  0
  -20.3102   -7.2272  -35.5078 N   0  0  0  0  0  0  0  0  0  0  0  0
  -20.3040   -7.4278  -36.8354 N   0  0  0  0  0  0  0  0  0  0  0  0
  -18.6850   -4.7779  -26.5880 N   0  0  0  0  0  0  0  0  0  0  0  0
  -20.5019   -5.1264  -31.4372 N   0  0  0  0  0  0  0  0  0  0  0  0
  -24.0363   -4.4219  -24.0027 N   0  0  0  0  0  0  0  0  0  0  0  0
  -26.7901   -3.2269  -21.9232 N   0  3  0  0  0  0  0  0  0  0  0  0
  -22.1446   -3.3699  -23.1712 O   0  0  0  0  0  0  0  0  0  0  0  0
  -26.5741   -5.4908  -23.8543 F   0  0  0  0  0  0  0  0  0  0  0  0
  -15.8570   -6.3404  -26.3883 H   0  0  0  0  0  0  0  0  0  0  0  0
  -24.0832   -4.3447  -28.7335 H   0  0  0  0  0  0  0  0  0  0  0  0
  -20.0774   -4.3472  -24.4649 H   0  0  0  0  0  0  0  0  0  0  0  0
  -15.7889   -3.6130  -26.7159 H   0  0  0  0  0  0  0  0  0  0  0  0
  -18.3929   -4.9899  -36.9791 H   0  0  0  0  0  0  0  0  0  0  0  0
  -20.4447   -8.2710  -25.3366 H   0  0  0  0  0  0  0  0  0  0  0  0
  -19.8496   -6.7779  -24.4828 H   0  0  0  0  0  0  0  0  0  0  0  0
  -17.5510   -7.7636  -24.3546 H   0  0  0  0  0  0  0  0  0  0  0  0
  -18.1430   -9.2587  -25.2073 H   0  0  0  0  0  0  0  0  0  0  0  0
  -18.2232   -6.4440  -32.3152 H   0  0  0  0  0  0  0  0  0  0  0  0
  -19.0849   -7.6038  -33.3168 H   0  0  0  0  0  0  0  0  0  0  0  0
  -21.1596   -4.6369  -34.0334 H   0  0  0  0  0  0  0  0  0  0  0  0
  -19.8533   -3.5067  -34.3588 H   0  0  0  0  0  0  0  0  0  0  0  0
  -21.2581   -6.7827  -32.5255 H   0  0  0  0  0  0  0  0  0  0  0  0
  -20.2401   -7.2010  -31.1377 H   0  0  0  0  0  0  0  0  0  0  0  0
  -19.0679   -3.6823  -31.9967 H   0  0  0  0  0  0  0  0  0  0  0  0
  -20.7469   -3.1315  -32.1121 H   0  0  0  0  0  0  0  0  0  0  0  0
  -25.1305   -2.0747  -22.5647 H   0  0  0  0  0  0  0  0  0  0  0  0
  -26.1384   -2.7987  -23.8688 H   0  0  0  0  0  0  0  0  0  0  0  0
  -27.9186   -5.0137  -21.8228 H   0  0  0  0  0  0  0  0  0  0  0  0
  -26.5597   -4.8704  -20.6411 H   0  0  0  0  0  0  0  0  0  0  0  0
  -18.1468   -5.1240  -34.1683 H   0  0  0  0  0  0  0  0  0  0  0  0
  -18.8133   -7.8974  -27.2043 H   0  0  0  0  0  0  0  0  0  0  0  0
  -24.1924   -4.2295  -21.9602 H   0  0  0  0  0  0  0  0  0  0  0  0
  -25.5177   -6.2801  -22.3556 H   0  0  0  0  0  0  0  0  0  0  0  0
  -23.4267   -3.7406  -31.6882 H   0  0  0  0  0  0  0  0  0  0  0  0
  -22.9315   -5.4156  -32.0352 H   0  0  0  0  0  0  0  0  0  0  0  0
  -24.3280   -5.1150  -31.0024 H   0  0  0  0  0  0  0  0  0  0  0  0
  -18.5617   -6.1499  -29.1870 H   0  0  0  0  0  0  0  0  0  0  0  0
  -18.4883   -4.7135  -30.2371 H   0  0  0  0  0  0  0  0  0  0  0  0
  -18.2121   -4.5425  -28.5046 H   0  0  0  0  0  0  0  0  0  0  0  0
  -20.8397   -8.1830  -37.2480 H   0  0  0  0  0  0  0  0  0  0  0  0
  -24.4752   -4.8485  -24.8121 H   0  0  0  0  0  0  0  0  0  0  0  0
  -26.6186   -2.7330  -21.0365 H   0  0  0  0  0  0  0  0  0  0  0  0
  -27.6781   -2.8614  -22.2934 H   0  0  0  0  0  0  0  0  0  0  0  0
  1  4  1  0  0  0  0
  1 14  2  0  0  0  0
  2  7  2  0  0  0  0
  2  9  1  0  0  0  0
  3 10  1  0  0  0  0
  3 12  2  0  0  0  0
  4 30  2  0  0  0  0
  5 13  1  0  0  0  0
  5 31  2  0  0  0  0
  6  8  1  0  0  0  0
  6  9  1  0  0  0  0
  6 10  2  0  0  0  0
  7 11  1  0  0  0  0
  7 28  1  0  0  0  0
  8 11  2  0  0  0  0
  8 29  1  0  0  0  0
  9 32  2  0  0  0  0
 10 35  1  0  0  0  0
 11 36  1  0  0  0  0
 12 15  1  0  0  0  0
 12 32  1  0  0  0  0
 13 24  1  0  0  0  0
 13 33  2  0  0  0  0
 14 25  1  0  0  0  0
 14 35  1  0  0  0  0
 15 37  1  0  0  0  0
 15 39  2  0  0  0  0
 16 17  1  0  0  0  0
 16 25  1  0  0  0  0
 17 25  1  0  0  0  0
 18 20  1  0  0  0  0
 18 24  1  0  0  0  0
 19 21  1  0  0  0  0
 19 24  1  0  0  0  0
 20 36  1  0  0  0  0
 21 36  1  0  0  0  0
 22 26  1  0  0  0  0
 22 38  1  0  0  0  0
 23 27  1  0  0  0  0
 23 38  1  0  0  0  0
 26 27  1  0  0  0  0
 26 37  1  0  0  0  0
 27 40  1  0  0  0  0
 30 35  1  0  0  0  0
 31 34  1  0  0  0  0
 33 34  1  0  0  0  0
  1 41  1  0  0  0  0
  2 42  1  0  0  0  0
  3 43  1  0  0  0  0
  4 44  1  0  0  0  0
  5 45  1  0  0  0  0
 16 46  1  0  0  0  0
 16 47  1  0  0  0  0
 17 48  1  0  0  0  0
 17 49  1  0  0  0  0
 18 50  1  0  0  0  0
 18 51  1  0  0  0  0
 19 52  1  0  0  0  0
 19 53  1  0  0  0  0
 20 54  1  0  0  0  0
 20 55  1  0  0  0  0
 21 56  1  0  0  0  0
 21 57  1  0  0  0  0
 22 58  1  0  0  0  0
 22 59  1  0  0  0  0
 23 60  1  0  0  0  0
 23 61  1  0  0  0  0
 24 62  1  0  0  0  0
 25 63  1  0  0  0  0
 26 64  1  0  0  0  0
 27 65  1  0  0  0  0
 28 66  1  0  0  0  0
 28 67  1  0  0  0  0
 28 68  1  0  0  0  0
 29 69  1  0  0  0  0
 29 70  1  0  0  0  0
 29 71  1  0  0  0  0
 34 72  1  0  0  0  0
 37 73  1  0  0  0  0
 38 74  1  0  0  0  0
 38 75  1  0  0  0  0
M  CHG  1  38   1
M  END
> <SMILES>
Cc1cc2nc(cc(c2c(c1N1CCC(CC1)c1cnn[nH]1)C)-n1nccc1C1CC1)C(=O)N[C@H]1CNC[C@H]1F

> <FORMATTED_ID>
H3D-005033

> <MOLFORMULA>
C29H34FN9O

> <Exact Mass>
543.29

> <XLogP>
2.71

> <TPSA_NOPS>
116.7

> <s_m_source_file>
ligprep_h3d.sdf

> <i_m_source_file_index>
754

> <i_lp_mmshare_version>
55123

> <i_f3d_flags>
0

> <s_epik_input>
W25IXTFubltjSF1jMVtDSF0oW0NIMl1bQ0gyXTIpW0NIMl1bQ0gyXU4yYyhjKFtDSDNdKVtjSF0zKWMoW0NIM10pYyhjMzQpYygtbjVuW2NIXVtjSF1jNVtDSF02W0NIMl1bQ0gyXTYpW2NIXWMobjQpQyg9TylbTkhdW0NASF03W0NIMl1bTkhdW0NIMl1bQ0BIXTdG

> <s_epik_cmdline>
J2VwaWtfcHl0aG9uJywgJy1waHQnLCAnMC41JywgJy1waCcsICc3LjUnLCAnLXRuJywgJzgnLCAnLW1hJywgJzUwMCcsICctaW1hZScsICc8aW5maWxlLm1hZT4nLCAnLW9tYWUnLCAnPG91dGZpbGUubWFlPic=

> <r_lp_tautomer_probability>
0.652348

> <r_epik_Ionization_Penalty>
0.0803544

> <r_epik_Ionization_Penalty_Charging>
0.0139022

> <r_epik_Ionization_Penalty_Neutral>
0.0664522

> <r_epik_State_Penalty>
0.0677801

> <r_epik_Charging_Adjusted_Penalty>
0.0816823

> <i_epik_Tot_Q>
1

> <i_epik_Tot_abs_Q>
1

> <s_lp_Force_Field>
S-OPLS

> <r_lp_Energy>
82.1775

> <b_lp_Chiralities_Consistent>
1

> <s_lp_Variant>
ligprep_h3d.sdf:754-1

> <ROCS_ShapeQuery>
_7L13

> <ROCS_TanimotoCombo>
0.708 

> <ROCS_ShapeTanimoto>
0.616 

> <ROCS_ColorTanimoto>
0.092 

> <ROCS_RefTversky>
0.806 

> <ROCS_RefColorTversky>
0.218 

> <ROCS_RefTverskyCombo>
1.024 

> <ROCS_FitTversky>
0.723 

> <ROCS_FitColorTversky>
0.138 

> <ROCS_FitTverskyCombo>
0.860 

> <ROCS_ColorScore>
-2.023

> <ROCS_Overlap>
1347.398

> <ROCS_Rank>
157                 

$$$$
ligprep_h3d.sdf:1205_363
  -OEChem-08212117123D

 85 90  0     1  0  0  0  0  0999 V2000
  -26.0388   -4.5895  -23.1629 C   0  0  0  0  0  0  0  0  0  0  0  0
  -25.1909   -5.5994  -22.7179 C   0  0  0  0  0  0  0  0  0  0  0  0
  -25.5671   -3.6220  -24.0505 C   0  0  0  0  0  0  0  0  0  0  0  0
  -23.8680   -5.6457  -23.1587 C   0  0  0  0  0  0  0  0  0  0  0  0
  -23.7468   -2.6874  -25.3979 C   0  0  0  0  0  0  0  0  0  0  0  0
  -22.4239   -2.7335  -25.8387 C   0  0  0  0  0  0  0  0  0  0  0  0
  -22.0476   -4.7110  -24.5061 C   0  0  0  0  0  0  0  0  0  0  0  0
  -18.9893   -5.5458  -34.4205 C   0  0  0  0  0  0  0  0  0  0  0  0
  -17.6166   -6.6488  -36.9325 C   0  0  0  0  0  0  0  0  0  0  0  0
  -24.2385   -3.6530  -24.5046 C   0  0  0  0  0  0  0  0  0  0  0  0
  -23.3762   -4.6800  -24.0520 C   0  0  0  0  0  0  0  0  0  0  0  0
  -18.6886   -7.2560  -36.2515 C   0  0  0  0  0  0  0  0  0  0  0  0
  -21.5760   -3.7434  -25.3936 C   0  0  0  0  0  0  0  0  0  0  0  0
  -19.3438   -6.7454  -35.0664 C   0  0  0  0  0  0  0  0  0  0  0  0
  -19.8576   -5.4573  -33.3600 C   0  0  0  0  0  0  0  0  0  0  0  0
  -18.9433   -8.4020  -36.9645 C   0  0  0  0  0  0  0  0  0  0  0  0
  -19.9688   -4.4158  -32.3241 C   0  0  0  0  0  0  0  0  0  0  0  0
  -20.9745   -4.4698  -29.4259 C   0  0  0  0  0  0  0  0  0  0  0  0
  -17.9546   -5.9185  -26.2631 C   0  0  0  0  0  0  0  0  0  0  0  0
  -23.1524   -1.8956  -32.5904 C   0  0  0  0  0  0  0  0  0  0  0  0
  -24.8838   -3.6044  -31.9145 C   0  0  0  0  0  0  0  0  0  0  0  0
  -22.8739   -3.1699  -30.3875 C   0  0  0  0  0  0  0  0  0  0  0  0
  -22.5132   -4.3434  -32.4374 C   0  0  0  0  0  0  0  0  0  0  0  0
  -24.0907   -0.7807  -32.1450 C   0  0  0  0  0  0  0  0  0  0  0  0
  -25.7916   -2.4786  -31.4422 C   0  0  0  0  0  0  0  0  0  0  0  0
  -21.3836   -3.5014  -30.4917 C   0  0  2  0  0  0  0  0  0  0  0  0
  -23.3932   -3.2310  -31.8427 C   0  0  0  0  0  0  0  0  0  0  0  0
  -19.9414   -9.4717  -36.7706 C   0  0  0  0  0  0  0  0  0  0  0  0
  -17.9092   -9.4154  -39.0189 C   0  0  0  0  0  0  0  0  0  0  0  0
  -15.8208   -6.5551  -25.1789 C   0  0  0  0  0  0  0  0  0  0  0  0
  -20.1439   -3.7919  -25.8722 C   0  0  0  0  0  0  0  0  0  0  0  0
  -18.5055   -5.0311  -27.3676 C   0  0  0  0  0  0  0  0  0  0  0  0
  -19.9696   -4.6236  -27.1567 C   0  0  2  0  0  0  0  0  0  0  0  0
  -17.2175   -7.3510  -37.9963 N   0  0  0  0  0  0  0  0  0  0  0  0
  -20.3581   -7.3739  -34.4663 N   0  0  0  0  0  0  0  0  0  0  0  0
  -20.6484   -6.5662  -33.4321 N   0  0  0  0  0  0  0  0  0  0  0  0
  -18.0432   -8.4114  -37.9891 N   0  0  0  0  0  0  0  0  0  0  0  0
  -21.2229   -4.1803  -31.7711 N   0  0  0  0  0  0  0  0  0  0  0  0
  -20.4290   -3.8747  -28.3043 N   0  0  0  0  0  0  0  0  0  0  0  0
  -16.5781   -5.7936  -26.1432 N   0  0  0  0  0  0  0  0  0  0  0  0
  -25.5025   -1.2513  -32.2392 N   0  3  0  0  0  0  0  0  0  0  0  0
  -18.9372   -3.8256  -32.0079 O   0  0  0  0  0  0  0  0  0  0  0  0
  -21.1416   -5.6706  -29.6042 O   0  0  0  0  0  0  0  0  0  0  0  0
  -18.6539   -6.6657  -25.5841 O   0  0  0  0  0  0  0  0  0  0  0  0
  -27.0682   -4.5542  -22.8191 H   0  0  0  0  0  0  0  0  0  0  0  0
  -25.5588   -6.3520  -22.0266 H   0  0  0  0  0  0  0  0  0  0  0  0
  -26.2481   -2.8421  -24.3853 H   0  0  0  0  0  0  0  0  0  0  0  0
  -23.2229   -6.4440  -22.7974 H   0  0  0  0  0  0  0  0  0  0  0  0
  -24.3918   -1.8887  -25.7588 H   0  0  0  0  0  0  0  0  0  0  0  0
  -22.0643   -1.9758  -26.5299 H   0  0  0  0  0  0  0  0  0  0  0  0
  -21.3739   -5.4959  -24.1658 H   0  0  0  0  0  0  0  0  0  0  0  0
  -18.2140   -4.8403  -34.6851 H   0  0  0  0  0  0  0  0  0  0  0  0
  -17.1063   -5.7235  -36.7036 H   0  0  0  0  0  0  0  0  0  0  0  0
  -23.2930   -2.0559  -33.6681 H   0  0  0  0  0  0  0  0  0  0  0  0
  -22.1166   -1.5573  -32.4662 H   0  0  0  0  0  0  0  0  0  0  0  0
  -25.0839   -4.5013  -31.3156 H   0  0  0  0  0  0  0  0  0  0  0  0
  -25.1457   -3.8641  -32.9493 H   0  0  0  0  0  0  0  0  0  0  0  0
  -23.3997   -3.9022  -29.7614 H   0  0  0  0  0  0  0  0  0  0  0  0
  -23.0232   -2.1904  -29.9230 H   0  0  0  0  0  0  0  0  0  0  0  0
  -22.8837   -5.3406  -32.1712 H   0  0  0  0  0  0  0  0  0  0  0  0
  -22.4244   -4.2831  -33.5260 H   0  0  0  0  0  0  0  0  0  0  0  0
  -23.9178   -0.4695  -31.1107 H   0  0  0  0  0  0  0  0  0  0  0  0
  -24.0030    0.0940  -32.7966 H   0  0  0  0  0  0  0  0  0  0  0  0
  -26.8460   -2.7218  -31.6040 H   0  0  0  0  0  0  0  0  0  0  0  0
  -25.6383   -2.2298  -30.3874 H   0  0  0  0  0  0  0  0  0  0  0  0
  -20.7403   -2.6162  -30.4603 H   0  0  0  0  0  0  0  0  0  0  0  0
  -20.8768   -9.2449  -37.3081 H   0  0  0  0  0  0  0  0  0  0  0  0
  -19.5765  -10.4487  -37.1311 H   0  0  0  0  0  0  0  0  0  0  0  0
  -20.1932   -9.6149  -35.7057 H   0  0  0  0  0  0  0  0  0  0  0  0
  -18.5513   -9.1280  -39.8557 H   0  0  0  0  0  0  0  0  0  0  0  0
  -16.8653   -9.4710  -39.3396 H   0  0  0  0  0  0  0  0  0  0  0  0
  -18.2131  -10.3866  -38.6184 H   0  0  0  0  0  0  0  0  0  0  0  0
  -15.7576   -5.9932  -24.2353 H   0  0  0  0  0  0  0  0  0  0  0  0
  -16.3201   -7.5185  -24.9990 H   0  0  0  0  0  0  0  0  0  0  0  0
  -14.8075   -6.7342  -25.5675 H   0  0  0  0  0  0  0  0  0  0  0  0
  -19.5330   -4.2022  -25.0586 H   0  0  0  0  0  0  0  0  0  0  0  0
  -19.7764   -2.7693  -26.0323 H   0  0  0  0  0  0  0  0  0  0  0  0
  -17.8727   -4.1399  -27.4657 H   0  0  0  0  0  0  0  0  0  0  0  0
  -18.4095   -5.5964  -28.3042 H   0  0  0  0  0  0  0  0  0  0  0  0
  -20.5959   -5.5229  -27.1159 H   0  0  0  0  0  0  0  0  0  0  0  0
  -21.4027   -6.8350  -32.8124 H   0  0  0  0  0  0  0  0  0  0  0  0
  -20.3471   -2.8626  -28.2856 H   0  0  0  0  0  0  0  0  0  0  0  0
  -16.0879   -5.1459  -26.7533 H   0  0  0  0  0  0  0  0  0  0  0  0
  -26.1302   -0.4956  -31.9322 H   0  0  0  0  0  0  0  0  0  0  0  0
  -25.7401   -1.4223  -33.2264 H   0  0  0  0  0  0  0  0  0  0  0  0
  1  2  1  0  0  0  0
  1  3  2  0  0  0  0
  2  4  2  0  0  0  0
  3 10  1  0  0  0  0
  4 11  1  0  0  0  0
  5  6  1  0  0  0  0
  5 10  2  0  0  0  0
  6 13  2  0  0  0  0
  7 11  2  0  0  0  0
  7 13  1  0  0  0  0
  8 14  1  0  0  0  0
  8 15  2  0  0  0  0
  9 12  1  0  0  0  0
  9 34  2  0  0  0  0
 10 11  1  0  0  0  0
 12 14  1  0  0  0  0
 12 16  2  0  0  0  0
 13 31  1  0  0  0  0
 14 35  2  0  0  0  0
 15 17  1  0  0  0  0
 15 36  1  0  0  0  0
 16 28  1  0  0  0  0
 16 37  1  0  0  0  0
 17 38  1  0  0  0  0
 17 42  2  0  0  0  0
 18 26  1  0  0  0  0
 18 39  1  0  0  0  0
 18 43  2  0  0  0  0
 19 32  1  0  0  0  0
 19 40  1  0  0  0  0
 19 44  2  0  0  0  0
 20 24  1  0  0  0  0
 20 27  1  0  0  0  0
 21 25  1  0  0  0  0
 21 27  1  0  0  0  0
 22 26  1  0  0  0  0
 22 27  1  0  0  0  0
 23 27  1  0  0  0  0
 23 38  1  0  0  0  0
 24 41  1  0  0  0  0
 25 41  1  0  0  0  0
 26 38  1  0  0  0  0
 29 37  1  0  0  0  0
 30 40  1  0  0  0  0
 31 33  1  0  0  0  0
 32 33  1  0  0  0  0
 33 39  1  0  0  0  0
 34 37  1  0  0  0  0
 35 36  1  0  0  0  0
  1 45  1  0  0  0  0
  2 46  1  0  0  0  0
  3 47  1  0  0  0  0
  4 48  1  0  0  0  0
  5 49  1  0  0  0  0
  6 50  1  0  0  0  0
  7 51  1  0  0  0  0
  8 52  1  0  0  0  0
  9 53  1  0  0  0  0
 20 54  1  0  0  0  0
 20 55  1  0  0  0  0
 21 56  1  0  0  0  0
 21 57  1  0  0  0  0
 22 58  1  0  0  0  0
 22 59  1  0  0  0  0
 23 60  1  0  0  0  0
 23 61  1  0  0  0  0
 24 62  1  0  0  0  0
 24 63  1  0  0  0  0
 25 64  1  0  0  0  0
 25 65  1  0  0  0  0
 26 66  1  0  0  0  0
 28 67  1  0  0  0  0
 28 68  1  0  0  0  0
 28 69  1  0  0  0  0
 29 70  1  0  0  0  0
 29 71  1  0  0  0  0
 29 72  1  0  0  0  0
 30 73  1  0  0  0  0
 30 74  1  0  0  0  0
 30 75  1  0  0  0  0
 31 76  1  0  0  0  0
 31 77  1  0  0  0  0
 32 78  1  0  0  0  0
 32 79  1  0  0  0  0
 33 80  1  0  0  0  0
 36 81  1  0  0  0  0
 39 82  1  0  0  0  0
 40 83  1  0  0  0  0
 41 84  1  0  0  0  0
 41 85  1  0  0  0  0
M  CHG  1  41   1
M  END
> <SMILES>
CNC(=O)C[C@@H](Cc1ccc2ccccc2c1)NC(=O)C1CC2(CCNCC2)CN1C(=O)c1cc([nH]n1)-c1cnn(c1C)C

> <FORMATTED_ID>
H3D-008332

> <MOLFORMULA>
C33H40N8O3

> <Exact Mass>
596.32

> <XLogP>
3.96

> <TPSA_NOPS>
137

> <s_m_source_file>
ligprep_h3d.sdf

> <i_m_source_file_index>
1205

> <i_lp_mmshare_version>
55123

> <i_f3d_flags>
0

> <s_epik_input>
W2NIXTFbY0hdW2NIXVtjSF1jKGMxMilbY0hdYyhbY0hdW2NIXTIpW0NIMl1bQ0BIXShbQ0gyXUMoPU8pW05IXVtDSDNdKVtOSF1DKD1PKVtDQEhdKFtDSDJdQzM0W0NIMl1bQ0gyXVtOSF1bQ0gyXVtDSDJdMylOKFtDSDJdNClDKD1PKWM1W2NIXWMobltuSF01KS1jNltjSF1ubihbQ0gzXSljNltDSDNd

> <s_epik_cmdline>
J2VwaWtfcHl0aG9uJywgJy1waHQnLCAnMC41JywgJy1waCcsICc3LjUnLCAnLXRuJywgJzgnLCAnLW1hJywgJzUwMCcsICctaW1hZScsICc8aW5maWxlLm1hZT4nLCAnLW9tYWUnLCAnPG91dGZpbGUubWFlPic=

> <r_lp_tautomer_probability>
0.5

> <r_epik_Ionization_Penalty>
0.00261712

> <r_epik_Ionization_Penalty_Charging>
0.00234828

> <r_epik_Ionization_Penalty_Neutral>
0.000268842

> <r_epik_State_Penalty>
0.41068

> <r_epik_Charging_Adjusted_Penalty>
0.413028

> <i_epik_Tot_Q>
1

> <i_epik_Tot_abs_Q>
1

> <s_lp_Force_Field>
S-OPLS

> <r_lp_Energy>
38.4181

> <b_lp_Chiralities_Consistent>
1

> <s_lp_Variant>
ligprep_h3d.sdf:1205-2

> <ROCS_ShapeQuery>
_7L13

> <ROCS_TanimotoCombo>
0.657 

> <ROCS_ShapeTanimoto>
0.581 

> <ROCS_ColorTanimoto>
0.075 

> <ROCS_RefTversky>
0.806 

> <ROCS_RefColorTversky>
0.187 

> <ROCS_RefTverskyCombo>
0.993 

> <ROCS_FitTversky>
0.676 

> <ROCS_FitColorTversky>
0.112 

> <ROCS_FitTverskyCombo>
0.787 

> <ROCS_ColorScore>
-1.751

> <ROCS_Overlap>
1353.241

> <ROCS_Rank>
158                 

$$$$
ligprep_h3d.sdf:1141_1456
  -OEChem-08212117123D

 68 72  0     0  0  0  0  0  0999 V2000
  -20.1375   -3.8981  -32.3434 C   0  0  0  0  0  0  0  0  0  0  0  0
  -20.4653   -6.2799  -32.1055 C   0  0  0  0  0  0  0  0  0  0  0  0
  -19.6067   -4.0985  -33.6177 C   0  0  0  0  0  0  0  0  0  0  0  0
  -19.9345   -6.4803  -33.3797 C   0  0  0  0  0  0  0  0  0  0  0  0
  -16.6702   -5.6566  -26.6627 C   0  0  0  0  0  0  0  0  0  0  0  0
  -23.0251   -4.3762  -28.8443 C   0  0  0  0  0  0  0  0  0  0  0  0
  -20.6057   -4.3711  -25.4654 C   0  0  0  0  0  0  0  0  0  0  0  0
  -16.6275   -4.2562  -26.8001 C   0  0  0  0  0  0  0  0  0  0  0  0
  -20.8408   -4.5786  -27.8626 C   0  0  0  0  0  0  0  0  0  0  0  0
  -20.5668   -4.9889  -31.5873 C   0  0  0  0  0  0  0  0  0  0  0  0
  -21.1172   -4.7810  -30.2656 C   0  0  0  0  0  0  0  0  0  0  0  0
  -19.5052   -5.3895  -34.1358 C   0  0  0  0  0  0  0  0  0  0  0  0
  -22.4835   -4.5780  -30.1162 C   0  0  0  0  0  0  0  0  0  0  0  0
  -20.2958   -4.7816  -29.1418 C   0  0  0  0  0  0  0  0  0  0  0  0
  -22.2272   -4.3720  -27.7035 C   0  0  0  0  0  0  0  0  0  0  0  0
  -20.0371   -4.5742  -26.7146 C   0  0  0  0  0  0  0  0  0  0  0  0
  -21.9711   -4.1777  -25.4096 C   0  0  0  0  0  0  0  0  0  0  0  0
  -18.0097   -5.9560  -26.6121 C   0  0  0  0  0  0  0  0  0  0  0  0
  -22.6300   -3.9610  -24.1330 C   0  0  0  0  0  0  0  0  0  0  0  0
  -26.1056   -4.8482  -23.1352 C   0  0  0  0  0  0  0  0  0  0  0  0
  -18.2852   -7.3040  -37.0929 C   0  0  0  0  0  0  0  0  0  0  0  0
  -20.6017   -7.0458  -36.4882 C   0  0  0  0  0  0  0  0  0  0  0  0
  -18.6060   -8.7027  -37.6121 C   0  0  0  0  0  0  0  0  0  0  0  0
  -20.8677   -8.4510  -37.0206 C   0  0  0  0  0  0  0  0  0  0  0  0
  -23.4109   -4.5665  -31.2898 C   0  0  0  0  0  0  0  0  0  0  0  0
  -18.8291   -5.0073  -29.3811 C   0  0  0  0  0  0  0  0  0  0  0  0
  -18.6986   -7.2543  -26.4745 C   0  0  0  0  0  0  0  0  0  0  0  0
  -18.9336   -5.6052  -35.5073 C   0  0  0  0  0  0  0  0  0  0  0  0
  -24.7507   -4.2357  -22.8223 C   0  0  0  0  0  0  0  0  0  0  0  0
  -17.8433   -3.7042  -26.8346 N   0  0  0  0  0  0  0  0  0  0  0  0
  -22.7818   -4.1745  -26.4925 N   0  0  0  0  0  0  0  0  0  0  0  0
  -18.6625   -4.7632  -26.7183 N   0  0  0  0  0  0  0  0  0  0  0  0
  -19.2149   -6.9475  -36.0121 N   0  0  0  0  0  0  0  0  0  0  0  0
  -23.9548   -4.3998  -24.0175 N   0  0  0  0  0  0  0  0  0  0  0  0
  -26.9467   -4.8012  -22.1935 O   0  5  0  0  0  0  0  0  0  0  0  0
  -22.0334   -3.3899  -23.2019 O   0  0  0  0  0  0  0  0  0  0  0  0
  -26.2264   -5.3177  -24.3020 O   0  0  0  0  0  0  0  0  0  0  0  0
  -19.9560   -8.7644  -38.0740 O   0  0  0  0  0  0  0  0  0  0  0  0
  -20.2094   -2.8857  -31.9532 H   0  0  0  0  0  0  0  0  0  0  0  0
  -20.7962   -7.1403  -31.5285 H   0  0  0  0  0  0  0  0  0  0  0  0
  -19.2737   -3.2429  -34.1992 H   0  0  0  0  0  0  0  0  0  0  0  0
  -19.8596   -7.4896  -33.7759 H   0  0  0  0  0  0  0  0  0  0  0  0
  -15.8439   -6.3502  -26.6087 H   0  0  0  0  0  0  0  0  0  0  0  0
  -24.0982   -4.2184  -28.7421 H   0  0  0  0  0  0  0  0  0  0  0  0
  -20.0056   -4.3630  -24.5597 H   0  0  0  0  0  0  0  0  0  0  0  0
  -15.7611   -3.6151  -26.8766 H   0  0  0  0  0  0  0  0  0  0  0  0
  -17.2524   -7.2883  -36.7263 H   0  0  0  0  0  0  0  0  0  0  0  0
  -18.3651   -6.5825  -37.9164 H   0  0  0  0  0  0  0  0  0  0  0  0
  -20.7831   -6.3131  -37.2853 H   0  0  0  0  0  0  0  0  0  0  0  0
  -21.3004   -6.8381  -35.6697 H   0  0  0  0  0  0  0  0  0  0  0  0
  -17.9532   -8.9445  -38.4570 H   0  0  0  0  0  0  0  0  0  0  0  0
  -18.4476   -9.4661  -36.8408 H   0  0  0  0  0  0  0  0  0  0  0  0
  -20.7864   -9.2066  -36.2295 H   0  0  0  0  0  0  0  0  0  0  0  0
  -21.8812   -8.5090  -37.4300 H   0  0  0  0  0  0  0  0  0  0  0  0
  -23.5045   -3.5501  -31.6871 H   0  0  0  0  0  0  0  0  0  0  0  0
  -23.0451   -5.2234  -32.0875 H   0  0  0  0  0  0  0  0  0  0  0  0
  -24.4071   -4.9272  -31.0083 H   0  0  0  0  0  0  0  0  0  0  0  0
  -18.6073   -6.0765  -29.3386 H   0  0  0  0  0  0  0  0  0  0  0  0
  -18.5327   -4.6194  -30.3596 H   0  0  0  0  0  0  0  0  0  0  0  0
  -18.2300   -4.4877  -28.6280 H   0  0  0  0  0  0  0  0  0  0  0  0
  -18.8675   -7.5040  -25.4143 H   0  0  0  0  0  0  0  0  0  0  0  0
  -19.6793   -7.2579  -26.9801 H   0  0  0  0  0  0  0  0  0  0  0  0
  -18.1204   -8.0791  -26.9252 H   0  0  0  0  0  0  0  0  0  0  0  0
  -19.3512   -4.8833  -36.2176 H   0  0  0  0  0  0  0  0  0  0  0  0
  -17.8470   -5.4690  -35.5061 H   0  0  0  0  0  0  0  0  0  0  0  0
  -24.2771   -4.7439  -21.9766 H   0  0  0  0  0  0  0  0  0  0  0  0
  -24.8506   -3.1747  -22.5732 H   0  0  0  0  0  0  0  0  0  0  0  0
  -24.4155   -4.8026  -24.8270 H   0  0  0  0  0  0  0  0  0  0  0  0
  1  3  1  0  0  0  0
  1 10  2  0  0  0  0
  2  4  2  0  0  0  0
  2 10  1  0  0  0  0
  3 12  2  0  0  0  0
  4 12  1  0  0  0  0
  5  8  1  0  0  0  0
  5 18  2  0  0  0  0
  6 13  2  0  0  0  0
  6 15  1  0  0  0  0
  7 16  1  0  0  0  0
  7 17  2  0  0  0  0
  8 30  2  0  0  0  0
  9 14  1  0  0  0  0
  9 15  1  0  0  0  0
  9 16  2  0  0  0  0
 10 11  1  0  0  0  0
 11 13  1  0  0  0  0
 11 14  2  0  0  0  0
 12 28  1  0  0  0  0
 13 25  1  0  0  0  0
 14 26  1  0  0  0  0
 15 31  2  0  0  0  0
 16 32  1  0  0  0  0
 17 19  1  0  0  0  0
 17 31  1  0  0  0  0
 18 27  1  0  0  0  0
 18 32  1  0  0  0  0
 19 34  1  0  0  0  0
 19 36  2  0  0  0  0
 20 29  1  0  0  0  0
 20 35  1  0  0  0  0
 20 37  2  0  0  0  0
 21 23  1  0  0  0  0
 21 33  1  0  0  0  0
 22 24  1  0  0  0  0
 22 33  1  0  0  0  0
 23 38  1  0  0  0  0
 24 38  1  0  0  0  0
 28 33  1  0  0  0  0
 29 34  1  0  0  0  0
 30 32  1  0  0  0  0
  1 39  1  0  0  0  0
  2 40  1  0  0  0  0
  3 41  1  0  0  0  0
  4 42  1  0  0  0  0
  5 43  1  0  0  0  0
  6 44  1  0  0  0  0
  7 45  1  0  0  0  0
  8 46  1  0  0  0  0
 21 47  1  0  0  0  0
 21 48  1  0  0  0  0
 22 49  1  0  0  0  0
 22 50  1  0  0  0  0
 23 51  1  0  0  0  0
 23 52  1  0  0  0  0
 24 53  1  0  0  0  0
 24 54  1  0  0  0  0
 25 55  1  0  0  0  0
 25 56  1  0  0  0  0
 25 57  1  0  0  0  0
 26 58  1  0  0  0  0
 26 59  1  0  0  0  0
 26 60  1  0  0  0  0
 27 61  1  0  0  0  0
 27 62  1  0  0  0  0
 27 63  1  0  0  0  0
 28 64  1  0  0  0  0
 28 65  1  0  0  0  0
 29 66  1  0  0  0  0
 29 67  1  0  0  0  0
 34 68  1  0  0  0  0
M  CHG  1  35  -1
M  END
> <SMILES>
Cc1cc2nc(cc(c2c(c1-c1ccc(cc1)CN1CCOCC1)C)-n1nccc1C)C(=O)NCC(=O)O

> <FORMATTED_ID>
H3D-007277

> <MOLFORMULA>
C29H31N5O4

> <Exact Mass>
513.24

> <XLogP>
2.86

> <TPSA_NOPS>
109.6

> <s_m_source_file>
ligprep_h3d.sdf

> <i_m_source_file_index>
1141

> <i_lp_mmshare_version>
55123

> <i_f3d_flags>
0

> <s_epik_input>
Tz1DKFtPSF0pW0NIMl1bTkhdQyg9TyljKG4xKVtjSF1jKC1uMm5bY0hdW2NIXWMyW0NIM10pYyhjMTMpYyhbQ0gzXSljKGMoW0NIM10pW2NIXTMpLWM0W2NIXVtjSF1jKFtjSF1bY0hdNClbQ0gyXU41W0NIMl1bQ0gyXU9bQ0gyXVtDSDJdNQ==

> <s_epik_cmdline>
J2VwaWtfcHl0aG9uJywgJy1waHQnLCAnMC41JywgJy1waCcsICc3LjUnLCAnLXRuJywgJzgnLCAnLW1hJywgJzUwMCcsICctaW1hZScsICc8aW5maWxlLm1hZT4nLCAnLW9tYWUnLCAnPG91dGZpbGUubWFlPic=

> <r_lp_tautomer_probability>
1

> <r_epik_Ionization_Penalty>
0.105633

> <r_epik_Ionization_Penalty_Charging>
7.49142e-05

> <r_epik_Ionization_Penalty_Neutral>
0.105558

> <r_epik_State_Penalty>
0.095414

> <r_epik_Charging_Adjusted_Penalty>
0.0954889

> <i_epik_Tot_Q>
-1

> <i_epik_Tot_abs_Q>
1

> <s_lp_Force_Field>
S-OPLS

> <r_lp_Energy>
68.1673

> <b_lp_Chiralities_Consistent>
1

> <s_lp_Variant>
ligprep_h3d.sdf:1141-1

> <ROCS_ShapeQuery>
_7L13

> <ROCS_TanimotoCombo>
0.793 

> <ROCS_ShapeTanimoto>
0.645 

> <ROCS_ColorTanimoto>
0.149 

> <ROCS_RefTversky>
0.806 

> <ROCS_RefColorTversky>
0.322 

> <ROCS_RefTverskyCombo>
1.128 

> <ROCS_FitTversky>
0.763 

> <ROCS_FitColorTversky>
0.216 

> <ROCS_FitTverskyCombo>
0.979 

> <ROCS_ColorScore>
-2.977

> <ROCS_Overlap>
1342.832

> <ROCS_Rank>
159                 

$$$$
ligprep_h3d.sdf:2475_1054
  -OEChem-08212117123D

 63 68  0     1  0  0  0  0  0999 V2000
  -20.8057   -4.9635  -24.0802 C   0  0  0  0  0  0  0  0  0  0  0  0
  -17.2806   -4.1129  -29.9273 C   0  0  0  0  0  0  0  0  0  0  0  0
  -24.5304   -5.4733  -25.0972 C   0  0  0  0  0  0  0  0  0  0  0  0
  -23.5561   -3.6305  -23.8756 C   0  0  0  0  0  0  0  0  0  0  0  0
  -25.5983   -5.5032  -24.2004 C   0  0  0  0  0  0  0  0  0  0  0  0
  -24.6241   -3.6604  -22.9788 C   0  0  0  0  0  0  0  0  0  0  0  0
  -18.6508   -4.0447  -29.6855 C   0  0  0  0  0  0  0  0  0  0  0  0
  -21.3792   -3.7308  -33.8054 C   0  0  0  0  0  0  0  0  0  0  0  0
  -20.3018   -3.9298  -34.7083 C   0  0  0  0  0  0  0  0  0  0  0  0
  -16.4300   -4.4549  -28.8892 C   0  0  0  0  0  0  0  0  0  0  0  0
  -23.5093   -4.5370  -24.9348 C   0  0  0  0  0  0  0  0  0  0  0  0
  -25.6452   -4.5968  -23.1412 C   0  0  0  0  0  0  0  0  0  0  0  0
  -21.4089   -6.0413  -33.3017 C   0  0  0  0  0  0  0  0  0  0  0  0
  -20.3025   -6.2456  -34.2288 C   0  0  0  0  0  0  0  0  0  0  0  0
  -19.0818   -4.3394  -28.3876 C   0  0  0  0  0  0  0  0  0  0  0  0
  -21.9725   -4.7731  -33.0701 C   0  0  0  0  0  0  0  0  0  0  0  0
  -19.7236   -5.1883  -34.9546 C   0  0  0  0  0  0  0  0  0  0  0  0
  -18.1447   -4.6534  -27.4046 C   0  0  0  0  0  0  0  0  0  0  0  0
  -20.0255   -4.6674  -26.3949 C   0  0  0  0  0  0  0  0  0  0  0  0
  -22.6301   -4.2628  -27.3056 C   0  0  0  0  0  0  0  0  0  0  0  0
  -21.1063   -4.7110  -25.4546 C   0  0  0  0  0  0  0  0  0  0  0  0
  -22.3756   -4.5051  -25.8865 C   0  0  0  0  0  0  0  0  0  0  0  0
  -21.6323   -4.2162  -28.2119 C   0  0  0  0  0  0  0  0  0  0  0  0
  -24.7209   -5.9642  -33.2214 C   0  0  0  0  0  0  0  0  0  0  0  0
  -24.0366   -5.5811  -31.9535 C   0  0  0  0  0  0  0  0  0  0  0  0
  -23.1245   -3.4630  -29.9819 C   0  0  0  0  0  0  0  0  0  0  0  0
  -23.1723   -3.2819  -31.4898 C   0  0  0  0  0  0  0  0  0  0  0  0
  -26.7884   -4.6278  -22.1842 C   0  0  0  0  0  0  0  0  0  0  0  0
  -20.5616   -5.1683  -22.9648 N   0  0  0  0  0  0  0  0  0  0  0  0
  -16.8084   -4.7274  -27.6240 N   0  0  0  0  0  0  0  0  0  0  0  0
  -21.7343   -7.2269  -32.7717 N   0  0  0  0  0  0  0  0  0  0  0  0
  -19.9936   -7.5483  -34.2302 N   0  0  0  0  0  0  0  0  0  0  0  0
  -18.7369   -4.8533  -26.1944 N   0  0  0  0  0  0  0  0  0  0  0  0
  -20.3124   -4.3946  -27.7414 N   0  0  0  0  0  0  0  0  0  0  0  0
  -21.8807   -4.0306  -29.5436 N   0  0  0  0  0  0  0  0  0  0  0  0
  -23.0384   -4.5323  -32.1870 N   0  0  3  0  0  0  0  0  0  0  0  0
  -18.6507   -5.3922  -35.8499 N   0  3  0  0  0  0  0  0  0  0  0  0
  -18.1728   -4.4084  -36.4727 O   0  5  0  0  0  0  0  0  0  0  0  0
  -18.1930   -6.5539  -36.0083 O   0  0  0  0  0  0  0  0  0  0  0  0
  -20.8690   -8.1461  -33.3398 O   0  0  0  0  0  0  0  0  0  0  0  0
  -27.7129   -5.5930  -22.4665 F   0  0  0  0  0  0  0  0  0  0  0  0
  -26.4134   -4.8615  -20.8917 F   0  0  0  0  0  0  0  0  0  0  0  0
  -27.4827   -3.4530  -22.1570 F   0  0  0  0  0  0  0  0  0  0  0  0
  -16.8870   -3.8969  -30.9152 H   0  0  0  0  0  0  0  0  0  0  0  0
  -24.5076   -6.1864  -25.9178 H   0  0  0  0  0  0  0  0  0  0  0  0
  -22.7679   -2.8945  -23.7361 H   0  0  0  0  0  0  0  0  0  0  0  0
  -26.3897   -6.2358  -24.3349 H   0  0  0  0  0  0  0  0  0  0  0  0
  -24.6528   -2.9506  -22.1563 H   0  0  0  0  0  0  0  0  0  0  0  0
  -19.3212   -3.7592  -30.4846 H   0  0  0  0  0  0  0  0  0  0  0  0
  -21.7571   -2.7156  -33.6834 H   0  0  0  0  0  0  0  0  0  0  0  0
  -19.9109   -3.0564  -35.2304 H   0  0  0  0  0  0  0  0  0  0  0  0
  -15.3592   -4.5137  -29.0629 H   0  0  0  0  0  0  0  0  0  0  0  0
  -23.6651   -4.1391  -27.6137 H   0  0  0  0  0  0  0  0  0  0  0  0
  -23.9776   -6.3360  -33.9420 H   0  0  0  0  0  0  0  0  0  0  0  0
  -25.4587   -6.7537  -33.0156 H   0  0  0  0  0  0  0  0  0  0  0  0
  -25.2318   -5.0856  -33.6422 H   0  0  0  0  0  0  0  0  0  0  0  0
  -24.7862   -5.2107  -31.2387 H   0  0  0  0  0  0  0  0  0  0  0  0
  -23.5360   -6.4663  -31.5341 H   0  0  0  0  0  0  0  0  0  0  0  0
  -23.9257   -4.1222  -29.6332 H   0  0  0  0  0  0  0  0  0  0  0  0
  -23.2286   -2.4942  -29.4835 H   0  0  0  0  0  0  0  0  0  0  0  0
  -24.1315   -2.8483  -31.7890 H   0  0  0  0  0  0  0  0  0  0  0  0
  -22.3700   -2.6235  -31.8380 H   0  0  0  0  0  0  0  0  0  0  0  0
  -21.1660   -4.3050  -30.1726 H   0  0  0  0  0  0  0  0  0  0  0  0
  1 21  1  0  0  0  0
  1 29  3  0  0  0  0
  2  7  1  0  0  0  0
  2 10  2  0  0  0  0
  3  5  1  0  0  0  0
  3 11  2  0  0  0  0
  4  6  2  0  0  0  0
  4 11  1  0  0  0  0
  5 12  2  0  0  0  0
  6 12  1  0  0  0  0
  7 15  2  0  0  0  0
  8  9  1  0  0  0  0
  8 16  2  0  0  0  0
  9 17  2  0  0  0  0
 10 30  1  0  0  0  0
 11 22  1  0  0  0  0
 12 28  1  0  0  0  0
 13 14  1  0  0  0  0
 13 16  1  0  0  0  0
 13 31  2  0  0  0  0
 14 17  1  0  0  0  0
 14 32  2  0  0  0  0
 15 18  1  0  0  0  0
 15 34  1  0  0  0  0
 16 36  1  0  0  0  0
 17 37  1  0  0  0  0
 18 30  2  0  0  0  0
 18 33  1  0  0  0  0
 19 21  1  0  0  0  0
 19 33  2  0  0  0  0
 19 34  1  0  0  0  0
 20 22  1  0  0  0  0
 20 23  2  0  0  0  0
 21 22  2  0  0  0  0
 23 34  1  0  0  0  0
 23 35  1  0  0  0  0
 24 25  1  0  0  0  0
 25 36  1  0  0  0  0
 26 27  1  0  0  0  0
 26 35  1  0  0  0  0
 27 36  1  0  0  0  0
 28 41  1  0  0  0  0
 28 42  1  0  0  0  0
 28 43  1  0  0  0  0
 31 40  1  0  0  0  0
 32 40  1  0  0  0  0
 37 38  1  0  0  0  0
 37 39  2  0  0  0  0
  2 44  1  0  0  0  0
  3 45  1  0  0  0  0
  4 46  1  0  0  0  0
  5 47  1  0  0  0  0
  6 48  1  0  0  0  0
  7 49  1  0  0  0  0
  8 50  1  0  0  0  0
  9 51  1  0  0  0  0
 10 52  1  0  0  0  0
 20 53  1  0  0  0  0
 24 54  1  0  0  0  0
 24 55  1  0  0  0  0
 24 56  1  0  0  0  0
 25 57  1  0  0  0  0
 25 58  1  0  0  0  0
 26 59  1  0  0  0  0
 26 60  1  0  0  0  0
 27 61  1  0  0  0  0
 27 62  1  0  0  0  0
 35 63  1  0  0  0  0
M  CHG  2  37   1  38  -1
M  END
> <SMILES>
CCN(CCNc1cc(c(c2nc3ncccc3n12)C#N)-c1ccc(cc1)C(F)(F)F)c1ccc(c2nonc12)[N+](=O)[O-]

> <FORMATTED_ID>
H3D-005897

> <MOLFORMULA>
C28H20F3N9O3

> <Exact Mass>
587.16

> <XLogP>
5.33

> <TPSA_NOPS>
151.6

> <s_m_source_file>
ligprep_h3d.sdf

> <i_m_source_file_index>
2475

> <i_lp_mmshare_version>
55123

> <i_f3d_flags>
0

> <s_epik_input>
Tz1bTitdKFtPLV0pYzFbY0hdW2NIXWMoYyhjMTIpbm9uMilOKFtDSDJdW0NIM10pW0NIMl1bQ0gyXVtOSF1jKG4oYzM0KWM1YyhuNCluW2NIXVtjSF1bY0hdNSlbY0hdYyhjM0MjTiktYzZbY0hdW2NIXWMoQyhGKShGKUYpW2NIXVtjSF02

> <s_epik_cmdline>
J2VwaWtfcHl0aG9uJywgJy1waHQnLCAnMC41JywgJy1waCcsICc3LjUnLCAnLXRuJywgJzgnLCAnLW1hJywgJzUwMCcsICctaW1hZScsICc8aW5maWxlLm1hZT4nLCAnLW9tYWUnLCAnPG91dGZpbGUubWFlPic=

> <r_lp_tautomer_probability>
1

> <r_epik_Ionization_Penalty>
8.08502e-06

> <r_epik_Ionization_Penalty_Charging>
0

> <r_epik_Ionization_Penalty_Neutral>
8.08502e-06

> <r_epik_State_Penalty>
-0

> <r_epik_Charging_Adjusted_Penalty>
0

> <i_epik_Tot_Q>
0

> <i_epik_Tot_abs_Q>
2

> <s_lp_Force_Field>
S-OPLS

> <r_lp_Energy>
80.4303

> <b_lp_Chiralities_Consistent>
1

> <s_lp_Variant>
ligprep_h3d.sdf:2475-1

> <ROCS_ShapeQuery>
_7L13

> <ROCS_TanimotoCombo>
0.673 

> <ROCS_ShapeTanimoto>
0.578 

> <ROCS_ColorTanimoto>
0.095 

> <ROCS_RefTversky>
0.806 

> <ROCS_RefColorTversky>
0.217 

> <ROCS_RefTverskyCombo>
1.023 

> <ROCS_FitTversky>
0.671 

> <ROCS_FitColorTversky>
0.145 

> <ROCS_FitTverskyCombo>
0.816 

> <ROCS_ColorScore>
-2.009

> <ROCS_Overlap>
1353.499

> <ROCS_Rank>
160                 

$$$$
ligprep_h3d.sdf:2724_406
  -OEChem-08212117123D

108112  0     1  0  0  0  0  0999 V2000
  -19.5811   -4.6860  -33.1979 C   0  0  0  0  0  0  0  0  0  0  0  0
  -19.4202   -4.8794  -34.5699 C   0  0  0  0  0  0  0  0  0  0  0  0
  -19.7098   -7.0770  -32.8759 C   0  0  0  0  0  0  0  0  0  0  0  0
  -19.5490   -7.2704  -34.2479 C   0  0  0  0  0  0  0  0  0  0  0  0
  -19.7259   -5.7848  -32.3509 C   0  0  0  0  0  0  0  0  0  0  0  0
  -19.4042   -6.1715  -35.0949 C   0  0  0  0  0  0  0  0  0  0  0  0
  -21.2177   -4.0369  -28.2128 C   0  0  0  0  0  0  0  0  0  0  0  0
  -16.8755   -5.4218  -26.8858 C   0  0  0  0  0  0  0  0  0  0  0  0
  -20.1330   -4.5515  -28.8038 C   0  0  0  0  0  0  0  0  0  0  0  0
  -16.3703   -5.3265  -25.6411 C   0  0  0  0  0  0  0  0  0  0  0  0
  -19.9573   -4.3791  -30.2816 C   0  0  0  0  0  0  0  0  0  0  0  0
  -23.3705   -3.4342  -31.0682 C   0  0  0  0  0  0  0  0  0  0  0  0
  -25.8076   -4.1396  -23.8515 C   0  0  0  0  0  0  0  0  0  0  0  0
  -23.7671   -4.0586  -20.4662 C   0  0  0  0  0  0  0  0  0  0  0  0
  -25.2184   -4.2408  -25.2562 C   0  0  0  0  0  0  0  0  0  0  0  0
  -23.0944   -4.0471  -21.8420 C   0  0  0  0  0  0  0  0  0  0  0  0
  -20.9164   -5.1345  -25.8268 C   0  0  0  0  0  0  0  0  0  0  0  0
  -23.4561   -3.1932  -27.8663 C   0  0  0  0  0  0  0  0  0  0  0  0
  -21.5673   -4.1070  -26.7470 C   0  0  2  0  0  0  0  0  0  0  0  0
  -22.3526   -3.3447  -28.9375 C   0  0  2  0  0  0  0  0  0  0  0  0
  -25.1878   -5.1612  -22.8801 C   0  0  2  0  0  0  0  0  0  0  0  0
  -23.0009   -5.0128  -24.2997 C   0  0  1  0  0  0  0  0  0  0  0  0
  -25.8430   -5.1299  -21.4615 C   0  0  1  0  0  0  0  0  0  0  0  0
  -25.2899   -4.0298  -20.5406 C   0  0  2  0  0  0  0  0  0  0  0  0
  -21.4423   -4.9800  -24.3849 C   0  0  2  0  0  0  0  0  0  0  0  0
  -23.6112   -5.1275  -22.8269 C   0  0  1  0  0  0  0  0  0  0  0  0
  -23.6938   -3.9839  -25.2980 C   0  0  1  0  0  0  0  0  0  0  0  0
  -23.1137   -4.2451  -26.7712 C   0  0  1  0  0  0  0  0  0  0  0  0
  -15.3165   -6.2224  -25.0545 C   0  0  0  0  0  0  0  0  0  0  0  0
  -16.8552   -4.2502  -24.7058 C   0  0  0  0  0  0  0  0  0  0  0  0
  -23.8035   -4.3842  -32.1434 C   0  0  0  0  0  0  0  0  0  0  0  0
  -27.3764   -5.0943  -21.5005 C   0  0  0  0  0  0  0  0  0  0  0  0
  -23.1398   -6.5080  -22.2530 C   0  0  0  0  0  0  0  0  0  0  0  0
  -23.4814   -2.4975  -24.8971 C   0  0  0  0  0  0  0  0  0  0  0  0
  -23.5640   -5.6389  -27.3307 C   0  0  0  0  0  0  0  0  0  0  0  0
  -22.0713  -10.6085  -36.8607 C   0  0  0  0  0  0  0  0  0  0  0  0
  -19.5309   -8.6531  -34.8071 C   0  0  0  0  0  0  0  0  0  0  0  0
  -17.9266   -4.5616  -27.5324 C   0  0  0  0  0  0  0  0  0  0  0  0
  -19.1052   -5.3812  -28.0763 C   0  0  0  0  0  0  0  0  0  0  0  0
  -20.7686  -10.3744  -36.1276 C   0  0  0  0  0  0  0  0  0  0  0  0
  -19.8882   -5.5881  -30.9585 N   0  0  0  0  0  0  0  0  0  0  0  0
  -20.7886   -9.0209  -35.5141 N   0  3  0  0  0  0  0  0  0  0  0  0
  -19.9471   -3.2479  -30.7560 O   0  0  0  0  0  0  0  0  0  0  0  0
  -23.5080   -2.2199  -31.1306 O   0  0  0  0  0  0  0  0  0  0  0  0
  -25.7485   -2.7374  -20.9241 O   0  0  0  0  0  0  0  0  0  0  0  0
  -20.9286   -3.7717  -23.8347 O   0  0  0  0  0  0  0  0  0  0  0  0
  -22.8092   -4.1270  -30.0298 O   0  0  0  0  0  0  0  0  0  0  0  0
  -19.2503   -6.3472  -36.4147 F   0  0  0  0  0  0  0  0  0  0  0  0
  -19.5920   -3.6743  -32.7999 H   0  0  0  0  0  0  0  0  0  0  0  0
  -19.3069   -4.0241  -35.2294 H   0  0  0  0  0  0  0  0  0  0  0  0
  -19.8220   -7.9350  -32.2167 H   0  0  0  0  0  0  0  0  0  0  0  0
  -16.4875   -6.2075  -27.5336 H   0  0  0  0  0  0  0  0  0  0  0  0
  -25.7202   -3.1217  -23.4652 H   0  0  0  0  0  0  0  0  0  0  0  0
  -26.8825   -4.3298  -23.9505 H   0  0  0  0  0  0  0  0  0  0  0  0
  -23.4468   -4.9455  -19.9076 H   0  0  0  0  0  0  0  0  0  0  0  0
  -23.4083   -3.1884  -19.9022 H   0  0  0  0  0  0  0  0  0  0  0  0
  -25.4563   -5.2425  -25.6301 H   0  0  0  0  0  0  0  0  0  0  0  0
  -25.7388   -3.5350  -25.9158 H   0  0  0  0  0  0  0  0  0  0  0  0
  -23.2170   -3.0466  -22.2510 H   0  0  0  0  0  0  0  0  0  0  0  0
  -22.0183   -4.1720  -21.6732 H   0  0  0  0  0  0  0  0  0  0  0  0
  -21.1027   -6.1536  -26.1839 H   0  0  0  0  0  0  0  0  0  0  0  0
  -19.8292   -4.9883  -25.8323 H   0  0  0  0  0  0  0  0  0  0  0  0
  -23.3917   -2.1731  -27.4775 H   0  0  0  0  0  0  0  0  0  0  0  0
  -24.4635   -3.3325  -28.2731 H   0  0  0  0  0  0  0  0  0  0  0  0
  -21.2857   -3.1168  -26.3644 H   0  0  0  0  0  0  0  0  0  0  0  0
  -22.0423   -2.3630  -29.3116 H   0  0  0  0  0  0  0  0  0  0  0  0
  -25.4601   -6.1412  -23.3039 H   0  0  0  0  0  0  0  0  0  0  0  0
  -23.2541   -5.9967  -24.7140 H   0  0  0  0  0  0  0  0  0  0  0  0
  -25.5989   -6.0811  -20.9798 H   0  0  0  0  0  0  0  0  0  0  0  0
  -25.6820   -4.2048  -19.5086 H   0  0  0  0  0  0  0  0  0  0  0  0
  -21.0174   -5.7992  -23.7977 H   0  0  0  0  0  0  0  0  0  0  0  0
  -14.3215   -5.8110  -25.2540 H   0  0  0  0  0  0  0  0  0  0  0  0
  -15.4037   -6.3570  -23.9751 H   0  0  0  0  0  0  0  0  0  0  0  0
  -15.3737   -7.2167  -25.5101 H   0  0  0  0  0  0  0  0  0  0  0  0
  -17.7105   -4.6107  -24.1247 H   0  0  0  0  0  0  0  0  0  0  0  0
  -16.0831   -3.9328  -23.9970 H   0  0  0  0  0  0  0  0  0  0  0  0
  -17.1672   -3.3674  -25.2735 H   0  0  0  0  0  0  0  0  0  0  0  0
  -22.9872   -4.5375  -32.8535 H   0  0  0  0  0  0  0  0  0  0  0  0
  -24.6878   -3.9913  -32.6515 H   0  0  0  0  0  0  0  0  0  0  0  0
  -24.0602   -5.3479  -31.6940 H   0  0  0  0  0  0  0  0  0  0  0  0
  -27.7054   -4.1711  -21.9693 H   0  0  0  0  0  0  0  0  0  0  0  0
  -27.7656   -5.1446  -20.4874 H   0  0  0  0  0  0  0  0  0  0  0  0
  -27.7439   -5.9419  -22.0723 H   0  0  0  0  0  0  0  0  0  0  0  0
  -23.4867   -7.2774  -22.9202 H   0  0  0  0  0  0  0  0  0  0  0  0
  -23.5708   -6.6217  -21.2739 H   0  0  0  0  0  0  0  0  0  0  0  0
  -22.0651   -6.4941  -22.2037 H   0  0  0  0  0  0  0  0  0  0  0  0
  -22.4226   -2.2855  -24.9167 H   0  0  0  0  0  0  0  0  0  0  0  0
  -23.8769   -2.3513  -23.9028 H   0  0  0  0  0  0  0  0  0  0  0  0
  -24.0044   -1.8734  -25.6067 H   0  0  0  0  0  0  0  0  0  0  0  0
  -23.3352   -6.3812  -26.5865 H   0  0  0  0  0  0  0  0  0  0  0  0
  -23.0176   -5.8203  -28.2393 H   0  0  0  0  0  0  0  0  0  0  0  0
  -24.6223   -5.5914  -27.5179 H   0  0  0  0  0  0  0  0  0  0  0  0
  -22.9113  -10.5704  -36.1603 H   0  0  0  0  0  0  0  0  0  0  0  0
  -22.2360   -9.8453  -37.6285 H   0  0  0  0  0  0  0  0  0  0  0  0
  -22.0809  -11.5892  -37.3478 H   0  0  0  0  0  0  0  0  0  0  0  0
  -18.7186   -8.7847  -35.5348 H   0  0  0  0  0  0  0  0  0  0  0  0
  -19.3887   -9.4057  -34.0197 H   0  0  0  0  0  0  0  0  0  0  0  0
  -18.2934   -3.7758  -26.8664 H   0  0  0  0  0  0  0  0  0  0  0  0
  -17.4534   -4.0386  -28.3732 H   0  0  0  0  0  0  0  0  0  0  0  0
  -19.5762   -5.9303  -27.2500 H   0  0  0  0  0  0  0  0  0  0  0  0
  -18.7173   -6.1478  -28.7591 H   0  0  0  0  0  0  0  0  0  0  0  0
  -19.9113  -10.4073  -36.8055 H   0  0  0  0  0  0  0  0  0  0  0  0
  -20.6269  -11.0930  -35.3156 H   0  0  0  0  0  0  0  0  0  0  0  0
  -19.9869   -6.4426  -30.4142 H   0  0  0  0  0  0  0  0  0  0  0  0
  -21.5745   -8.9604  -34.8534 H   0  0  0  0  0  0  0  0  0  0  0  0
  -20.9797   -8.3214  -36.2436 H   0  0  0  0  0  0  0  0  0  0  0  0
  -25.4315   -2.1199  -20.2469 H   0  0  0  0  0  0  0  0  0  0  0  0
  -19.9616   -3.8494  -23.8481 H   0  0  0  0  0  0  0  0  0  0  0  0
  1  2  1  0  0  0  0
  1  5  2  0  0  0  0
  2  6  2  0  0  0  0
  3  4  2  0  0  0  0
  3  5  1  0  0  0  0
  4  6  1  0  0  0  0
  4 37  1  0  0  0  0
  5 41  1  0  0  0  0
  6 48  1  0  0  0  0
  7  9  2  0  0  0  0
  7 19  1  0  0  0  0
  7 20  1  0  0  0  0
  8 10  2  0  0  0  0
  8 38  1  0  0  0  0
  9 11  1  0  0  0  0
  9 39  1  0  0  0  0
 10 29  1  0  0  0  0
 10 30  1  0  0  0  0
 11 41  1  0  0  0  0
 11 43  2  0  0  0  0
 12 31  1  0  0  0  0
 12 44  2  0  0  0  0
 12 47  1  0  0  0  0
 13 15  1  0  0  0  0
 13 21  1  0  0  0  0
 14 16  1  0  0  0  0
 14 24  1  0  0  0  0
 15 27  1  0  0  0  0
 16 26  1  0  0  0  0
 17 19  1  0  0  0  0
 17 25  1  0  0  0  0
 18 20  1  0  0  0  0
 18 28  1  0  0  0  0
 19 28  1  0  0  0  0
 20 47  1  0  0  0  0
 21 23  1  0  0  0  0
 21 26  1  0  0  0  0
 22 25  1  0  0  0  0
 22 26  1  0  0  0  0
 22 27  1  0  0  0  0
 23 24  1  0  0  0  0
 23 32  1  0  0  0  0
 24 45  1  0  0  0  0
 25 46  1  0  0  0  0
 26 33  1  0  0  0  0
 27 28  1  0  0  0  0
 27 34  1  0  0  0  0
 28 35  1  0  0  0  0
 36 40  1  0  0  0  0
 37 42  1  0  0  0  0
 38 39  1  0  0  0  0
 40 42  1  0  0  0  0
  1 49  1  0  0  0  0
  2 50  1  0  0  0  0
  3 51  1  0  0  0  0
  8 52  1  0  0  0  0
 13 53  1  0  0  0  0
 13 54  1  0  0  0  0
 14 55  1  0  0  0  0
 14 56  1  0  0  0  0
 15 57  1  0  0  0  0
 15 58  1  0  0  0  0
 16 59  1  0  0  0  0
 16 60  1  0  0  0  0
 17 61  1  0  0  0  0
 17 62  1  0  0  0  0
 18 63  1  0  0  0  0
 18 64  1  0  0  0  0
 19 65  1  0  0  0  0
 20 66  1  0  0  0  0
 21 67  1  0  0  0  0
 22 68  1  0  0  0  0
 23 69  1  0  0  0  0
 24 70  1  0  0  0  0
 25 71  1  0  0  0  0
 29 72  1  0  0  0  0
 29 73  1  0  0  0  0
 29 74  1  0  0  0  0
 30 75  1  0  0  0  0
 30 76  1  0  0  0  0
 30 77  1  0  0  0  0
 31 78  1  0  0  0  0
 31 79  1  0  0  0  0
 31 80  1  0  0  0  0
 32 81  1  0  0  0  0
 32 82  1  0  0  0  0
 32 83  1  0  0  0  0
 33 84  1  0  0  0  0
 33 85  1  0  0  0  0
 33 86  1  0  0  0  0
 34 87  1  0  0  0  0
 34 88  1  0  0  0  0
 34 89  1  0  0  0  0
 35 90  1  0  0  0  0
 35 91  1  0  0  0  0
 35 92  1  0  0  0  0
 36 93  1  0  0  0  0
 36 94  1  0  0  0  0
 36 95  1  0  0  0  0
 37 96  1  0  0  0  0
 37 97  1  0  0  0  0
 38 98  1  0  0  0  0
 38 99  1  0  0  0  0
 39100  1  0  0  0  0
 39101  1  0  0  0  0
 40102  1  0  0  0  0
 40103  1  0  0  0  0
 41104  1  0  0  0  0
 42105  1  0  0  0  0
 42106  1  0  0  0  0
 45107  1  0  0  0  0
 46108  1  0  0  0  0
M  CHG  1  42   1
M  END
> <SMILES>
CCNCc1cc(ccc1F)NC(=O)/C(=C/1\[C@H](C[C@@]2(C)[C@H]1C[C@@H](O)[C@H]1[C@@]3(C)CC[C@@H](O)[C@@H](C)C3CC[C@@]12C)OC(=O)C)CCC=C(C)C

> <FORMATTED_ID>
H3D-008274

> <MOLFORMULA>
C40H59FN2O5

> <Exact Mass>
666.44

> <XLogP>
7.21

> <TPSA_NOPS>
107.9

> <s_m_source_file>
ligprep_h3d.sdf

> <i_m_source_file_index>
2724

> <i_lp_mmshare_version>
55123

> <i_f3d_flags>
0

> <s_epik_input>
W0NIM11bQ0gyXVtOSF1bQ0gyXWMxW2NIXWMoW2NIXVtjSF1jMUYpW05IXUMoPU8pL0MoW0NIMl1bQ0gyXVtDSF09QyhbQ0gzXSlbQ0gzXSk9QyhcW0NASF0oW0NIMl0yKU9DKD1PKVtDSDNdKVtDQEBIXShbQ0BdMjNbQ0gzXSlbQ0gyXVtDQEBIXShbT0hdKVtDQEhdNFtDQF01KFtDSDNdKVtDQEBIXShbQ0BIXShbQ0gzXSlbQ0BIXShbT0hdKVtDSDJdW0NIMl01KVtDSDJdW0NIMl1bQ0BdMzRbQ0gzXQ==

> <s_epik_cmdline>
J2VwaWtfcHl0aG9uJywgJy1waHQnLCAnMC41JywgJy1waCcsICc3LjUnLCAnLXRuJywgJzgnLCAnLW1hJywgJzUwMCcsICctaW1hZScsICc8aW5maWxlLm1hZT4nLCAnLW9tYWUnLCAnPG91dGZpbGUubWFlPic=

> <r_epik_Ionization_Penalty>
0.0460341

> <r_epik_Ionization_Penalty_Charging>
0.0456919

> <r_epik_Ionization_Penalty_Neutral>
0.000342216

> <r_epik_State_Penalty>
0.0388038

> <r_epik_Charging_Adjusted_Penalty>
0.0844957

> <i_epik_Tot_Q>
1

> <i_epik_Tot_abs_Q>
1

> <s_epik_Chemistry_Notes>
This compound has an ester and may undergo hydrolysis at high or low pH.

> <s_lp_Force_Field>
S-OPLS

> <r_lp_Energy>
88.6331

> <b_lp_Chiralities_Consistent>
1

> <s_lp_Variant>
ligprep_h3d.sdf:2724-1

> <ROCS_ShapeQuery>
_7L13

> <ROCS_TanimotoCombo>
0.663 

> <ROCS_ShapeTanimoto>
0.564 

> <ROCS_ColorTanimoto>
0.099 

> <ROCS_RefTversky>
0.806 

> <ROCS_RefColorTversky>
0.241 

> <ROCS_RefTverskyCombo>
1.047 

> <ROCS_FitTversky>
0.652 

> <ROCS_FitColorTversky>
0.144 

> <ROCS_FitTverskyCombo>
0.796 

> <ROCS_ColorScore>
-2.255

> <ROCS_Overlap>
1356.040

> <ROCS_Rank>
161                 

$$$$
ligprep_h3d.sdf:2373_371
  -OEChem-08212117123D

108112  0     1  0  0  0  0  0999 V2000
  -21.2658   -4.1938  -29.2422 C   0  0  0  0  0  0  0  0  0  0  0  0
  -17.7147   -5.7841  -26.0634 C   0  0  0  0  0  0  0  0  0  0  0  0
  -20.6624   -4.2253  -28.0483 C   0  0  0  0  0  0  0  0  0  0  0  0
  -16.4742   -5.3769  -25.7335 C   0  0  0  0  0  0  0  0  0  0  0  0
  -21.1743   -3.3577  -26.9423 C   0  0  0  0  0  0  0  0  0  0  0  0
  -23.1885   -1.1044  -29.0993 C   0  0  0  0  0  0  0  0  0  0  0  0
  -26.4734   -4.8778  -23.4379 C   0  0  0  0  0  0  0  0  0  0  0  0
  -25.3780   -4.5040  -22.4442 C   0  0  0  0  0  0  0  0  0  0  0  0
  -25.8942   -5.5094  -24.7000 C   0  0  0  0  0  0  0  0  0  0  0  0
  -20.6598   -4.1475  -35.5141 C   0  0  0  0  0  0  0  0  0  0  0  0
  -24.3192   -3.6083  -23.0833 C   0  0  0  0  0  0  0  0  0  0  0  0
  -24.8362   -4.6156  -25.3428 C   0  0  0  0  0  0  0  0  0  0  0  0
  -19.3888   -8.3650  -36.0419 C   0  0  0  0  0  0  0  0  0  0  0  0
  -21.4315   -3.8317  -34.2210 C   0  0  0  0  0  0  0  0  0  0  0  0
  -19.6692   -7.7731  -34.6493 C   0  0  0  0  0  0  0  0  0  0  0  0
  -19.5051   -5.6249  -30.6140 C   0  0  0  0  0  0  0  0  0  0  0  0
  -22.5814   -3.4716  -31.1375 C   0  0  0  0  0  0  0  0  0  0  0  0
  -20.8896   -4.9995  -30.4617 C   0  0  2  0  0  0  0  0  0  0  0  0
  -22.4153   -3.2779  -29.6139 C   0  0  2  0  0  0  0  0  0  0  0  0
  -20.4803   -5.6508  -35.7015 C   0  0  1  0  0  0  0  0  0  0  0  0
  -19.8276   -5.5611  -33.1754 C   0  0  1  0  0  0  0  0  0  0  0  0
  -23.7277   -4.2445  -24.3485 C   0  0  0  0  0  0  0  0  0  0  0  0
  -20.0889   -6.1385  -37.1229 C   0  0  1  0  0  0  0  0  0  0  0  0
  -20.1727   -7.6866  -37.1680 C   0  0  2  0  0  0  0  0  0  0  0  0
  -19.4222   -6.4148  -31.9361 C   0  0  2  0  0  0  0  0  0  0  0  0
  -19.5308   -6.2297  -34.5963 C   0  0  1  0  0  0  0  0  0  0  0  0
  -21.2220   -4.8222  -33.0216 C   0  0  1  0  0  0  0  0  0  0  0  0
  -21.2145   -4.0243  -31.6282 C   0  0  1  0  0  0  0  0  0  0  0  0
  -15.3749   -6.3848  -25.5240 C   0  0  0  0  0  0  0  0  0  0  0  0
  -16.0479   -3.9500  -25.5354 C   0  0  0  0  0  0  0  0  0  0  0  0
  -22.7215    0.2925  -28.8225 C   0  0  0  0  0  0  0  0  0  0  0  0
  -20.9625   -5.5227  -38.2238 C   0  0  0  0  0  0  0  0  0  0  0  0
  -18.0309   -5.8911  -34.8949 C   0  0  0  0  0  0  0  0  0  0  0  0
  -22.4006   -5.8437  -33.0460 C   0  0  0  0  0  0  0  0  0  0  0  0
  -20.2054   -2.8197  -31.6479 C   0  0  0  0  0  0  0  0  0  0  0  0
  -23.3503   -1.9966  -25.4321 C   0  0  0  0  0  0  0  0  0  0  0  0
  -18.9325   -4.9394  -26.3204 C   0  0  0  0  0  0  0  0  0  0  0  0
  -19.4188   -5.0345  -27.7731 C   0  0  0  0  0  0  0  0  0  0  0  0
  -22.7113   -3.3078  -24.9986 C   0  0  2  0  0  0  0  0  0  0  0  0
  -22.1432   -3.9569  -26.1574 N   0  0  0  0  0  0  0  0  0  0  0  0
  -20.6975   -2.2411  -26.7548 O   0  0  0  0  0  0  0  0  0  0  0  0
  -24.3636   -1.4452  -29.1065 O   0  0  0  0  0  0  0  0  0  0  0  0
  -21.5292   -8.1250  -37.0590 O   0  0  0  0  0  0  0  0  0  0  0  0
  -20.2474   -7.5710  -31.8247 O   0  0  0  0  0  0  0  0  0  0  0  0
  -22.1140   -1.9183  -29.3365 O   0  0  0  0  0  0  0  0  0  0  0  0
  -17.8876   -6.8543  -26.1730 H   0  0  0  0  0  0  0  0  0  0  0  0
  -27.1768   -5.5737  -22.9668 H   0  0  0  0  0  0  0  0  0  0  0  0
  -27.0425   -3.9798  -23.7080 H   0  0  0  0  0  0  0  0  0  0  0  0
  -25.8221   -3.9930  -21.5823 H   0  0  0  0  0  0  0  0  0  0  0  0
  -24.9025   -5.4166  -22.0641 H   0  0  0  0  0  0  0  0  0  0  0  0
  -25.4489   -6.4806  -24.4512 H   0  0  0  0  0  0  0  0  0  0  0  0
  -26.6997   -5.7024  -25.4177 H   0  0  0  0  0  0  0  0  0  0  0  0
  -21.2183   -3.6997  -36.3421 H   0  0  0  0  0  0  0  0  0  0  0  0
  -19.6884   -3.6412  -35.4988 H   0  0  0  0  0  0  0  0  0  0  0  0
  -24.7694   -2.6378  -23.3288 H   0  0  0  0  0  0  0  0  0  0  0  0
  -23.5229   -3.4132  -22.3550 H   0  0  0  0  0  0  0  0  0  0  0  0
  -24.4048   -5.1313  -26.2091 H   0  0  0  0  0  0  0  0  0  0  0  0
  -25.3170   -3.7050  -25.7230 H   0  0  0  0  0  0  0  0  0  0  0  0
  -18.3168   -8.3080  -36.2595 H   0  0  0  0  0  0  0  0  0  0  0  0
  -19.6389   -9.4332  -36.0120 H   0  0  0  0  0  0  0  0  0  0  0  0
  -21.1761   -2.8032  -33.9576 H   0  0  0  0  0  0  0  0  0  0  0  0
  -22.5011   -3.7832  -34.4661 H   0  0  0  0  0  0  0  0  0  0  0  0
  -20.6809   -8.0677  -34.3480 H   0  0  0  0  0  0  0  0  0  0  0  0
  -18.9766   -8.2490  -33.9455 H   0  0  0  0  0  0  0  0  0  0  0  0
  -18.7222   -4.8589  -30.5860 H   0  0  0  0  0  0  0  0  0  0  0  0
  -19.3189   -6.3046  -29.7735 H   0  0  0  0  0  0  0  0  0  0  0  0
  -23.3830   -4.1999  -31.2961 H   0  0  0  0  0  0  0  0  0  0  0  0
  -22.8633   -2.5476  -31.6536 H   0  0  0  0  0  0  0  0  0  0  0  0
  -21.6084   -5.8283  -30.4469 H   0  0  0  0  0  0  0  0  0  0  0  0
  -23.3362   -3.5518  -29.0910 H   0  0  0  0  0  0  0  0  0  0  0  0
  -21.4809   -6.0695  -35.5572 H   0  0  0  0  0  0  0  0  0  0  0  0
  -19.1058   -4.7370  -33.1429 H   0  0  0  0  0  0  0  0  0  0  0  0
  -23.2002   -5.1630  -24.0599 H   0  0  0  0  0  0  0  0  0  0  0  0
  -19.0598   -5.8389  -37.3478 H   0  0  0  0  0  0  0  0  0  0  0  0
  -19.7934   -8.0536  -38.1293 H   0  0  0  0  0  0  0  0  0  0  0  0
  -18.3917   -6.7672  -32.0578 H   0  0  0  0  0  0  0  0  0  0  0  0
  -14.8533   -6.5781  -26.4674 H   0  0  0  0  0  0  0  0  0  0  0  0
  -14.6296   -6.0458  -24.7967 H   0  0  0  0  0  0  0  0  0  0  0  0
  -15.7914   -7.3285  -25.1567 H   0  0  0  0  0  0  0  0  0  0  0  0
  -16.1594   -3.5955  -24.5092 H   0  0  0  0  0  0  0  0  0  0  0  0
  -16.6404   -3.2894  -26.1771 H   0  0  0  0  0  0  0  0  0  0  0  0
  -14.9923   -3.8330  -25.8037 H   0  0  0  0  0  0  0  0  0  0  0  0
  -22.5490    0.4205  -27.7510 H   0  0  0  0  0  0  0  0  0  0  0  0
  -23.4637    1.0098  -29.1818 H   0  0  0  0  0  0  0  0  0  0  0  0
  -21.7806    0.4718  -29.3510 H   0  0  0  0  0  0  0  0  0  0  0  0
  -22.0019   -5.7881  -38.0520 H   0  0  0  0  0  0  0  0  0  0  0  0
  -20.6469   -5.9029  -39.1913 H   0  0  0  0  0  0  0  0  0  0  0  0
  -20.8570   -4.4416  -38.2073 H   0  0  0  0  0  0  0  0  0  0  0  0
  -17.9211   -4.8211  -34.8611 H   0  0  0  0  0  0  0  0  0  0  0  0
  -17.7949   -6.2728  -35.8730 H   0  0  0  0  0  0  0  0  0  0  0  0
  -17.4288   -6.3653  -34.1394 H   0  0  0  0  0  0  0  0  0  0  0  0
  -22.2677   -6.5304  -32.2256 H   0  0  0  0  0  0  0  0  0  0  0  0
  -22.3736   -6.3659  -33.9888 H   0  0  0  0  0  0  0  0  0  0  0  0
  -23.3230   -5.2957  -32.9394 H   0  0  0  0  0  0  0  0  0  0  0  0
  -19.2573   -3.1956  -31.9866 H   0  0  0  0  0  0  0  0  0  0  0  0
  -20.1375   -2.4364  -30.6463 H   0  0  0  0  0  0  0  0  0  0  0  0
  -20.5954   -2.0802  -32.3230 H   0  0  0  0  0  0  0  0  0  0  0  0
  -24.1676   -2.1780  -26.1387 H   0  0  0  0  0  0  0  0  0  0  0  0
  -22.6164   -1.3483  -25.9219 H   0  0  0  0  0  0  0  0  0  0  0  0
  -23.7689   -1.4533  -24.5775 H   0  0  0  0  0  0  0  0  0  0  0  0
  -19.7524   -5.1669  -25.6336 H   0  0  0  0  0  0  0  0  0  0  0  0
  -18.6590   -3.8964  -26.1156 H   0  0  0  0  0  0  0  0  0  0  0  0
  -18.6159   -4.6919  -28.4382 H   0  0  0  0  0  0  0  0  0  0  0  0
  -19.5868   -6.0888  -28.0303 H   0  0  0  0  0  0  0  0  0  0  0  0
  -21.8984   -3.1019  -24.2937 H   0  0  0  0  0  0  0  0  0  0  0  0
  -22.4670   -4.8872  -26.4049 H   0  0  0  0  0  0  0  0  0  0  0  0
  -21.5119   -9.0884  -37.1561 H   0  0  0  0  0  0  0  0  0  0  0  0
  -19.8995   -8.0886  -31.0819 H   0  0  0  0  0  0  0  0  0  0  0  0
  1  3  2  0  0  0  0
  1 18  1  0  0  0  0
  1 19  1  0  0  0  0
  2  4  2  0  0  0  0
  2 37  1  0  0  0  0
  3  5  1  0  0  0  0
  3 38  1  0  0  0  0
  4 29  1  0  0  0  0
  4 30  1  0  0  0  0
  5 40  1  0  0  0  0
  5 41  2  0  0  0  0
  6 31  1  0  0  0  0
  6 42  2  0  0  0  0
  6 45  1  0  0  0  0
  7  8  1  0  0  0  0
  7  9  1  0  0  0  0
  8 11  1  0  0  0  0
  9 12  1  0  0  0  0
 10 14  1  0  0  0  0
 10 20  1  0  0  0  0
 11 22  1  0  0  0  0
 12 22  1  0  0  0  0
 13 15  1  0  0  0  0
 13 24  1  0  0  0  0
 14 27  1  0  0  0  0
 15 26  1  0  0  0  0
 16 18  1  0  0  0  0
 16 25  1  0  0  0  0
 17 19  1  0  0  0  0
 17 28  1  0  0  0  0
 18 28  1  0  0  0  0
 19 45  1  0  0  0  0
 20 23  1  0  0  0  0
 20 26  1  0  0  0  0
 21 25  1  0  0  0  0
 21 26  1  0  0  0  0
 21 27  1  0  0  0  0
 22 39  1  0  0  0  0
 23 24  1  0  0  0  0
 23 32  1  0  0  0  0
 24 43  1  0  0  0  0
 25 44  1  0  0  0  0
 26 33  1  0  0  0  0
 27 28  1  0  0  0  0
 27 34  1  0  0  0  0
 28 35  1  0  0  0  0
 36 39  1  0  0  0  0
 37 38  1  0  0  0  0
 39 40  1  0  0  0  0
  2 46  1  0  0  0  0
  7 47  1  0  0  0  0
  7 48  1  0  0  0  0
  8 49  1  0  0  0  0
  8 50  1  0  0  0  0
  9 51  1  0  0  0  0
  9 52  1  0  0  0  0
 10 53  1  0  0  0  0
 10 54  1  0  0  0  0
 11 55  1  0  0  0  0
 11 56  1  0  0  0  0
 12 57  1  0  0  0  0
 12 58  1  0  0  0  0
 13 59  1  0  0  0  0
 13 60  1  0  0  0  0
 14 61  1  0  0  0  0
 14 62  1  0  0  0  0
 15 63  1  0  0  0  0
 15 64  1  0  0  0  0
 16 65  1  0  0  0  0
 16 66  1  0  0  0  0
 17 67  1  0  0  0  0
 17 68  1  0  0  0  0
 18 69  1  0  0  0  0
 19 70  1  0  0  0  0
 20 71  1  0  0  0  0
 21 72  1  0  0  0  0
 22 73  1  0  0  0  0
 23 74  1  0  0  0  0
 24 75  1  0  0  0  0
 25 76  1  0  0  0  0
 29 77  1  0  0  0  0
 29 78  1  0  0  0  0
 29 79  1  0  0  0  0
 30 80  1  0  0  0  0
 30 81  1  0  0  0  0
 30 82  1  0  0  0  0
 31 83  1  0  0  0  0
 31 84  1  0  0  0  0
 31 85  1  0  0  0  0
 32 86  1  0  0  0  0
 32 87  1  0  0  0  0
 32 88  1  0  0  0  0
 33 89  1  0  0  0  0
 33 90  1  0  0  0  0
 33 91  1  0  0  0  0
 34 92  1  0  0  0  0
 34 93  1  0  0  0  0
 34 94  1  0  0  0  0
 35 95  1  0  0  0  0
 35 96  1  0  0  0  0
 35 97  1  0  0  0  0
 36 98  1  0  0  0  0
 36 99  1  0  0  0  0
 36100  1  0  0  0  0
 37101  1  0  0  0  0
 37102  1  0  0  0  0
 38103  1  0  0  0  0
 38104  1  0  0  0  0
 39105  1  0  0  0  0
 40106  1  0  0  0  0
 43107  1  0  0  0  0
 44108  1  0  0  0  0
M  END
> <SMILES>
C[C@H](NC(=O)/C(=C/1\[C@H](C[C@@]2(C)[C@H]1C[C@@H](O)[C@H]1[C@@]3(C)CC[C@@H](O)[C@@H](C)[C@@H]3CC[C@@]12C)OC(=O)C)CCC=C(C)C)C1CCCCC1

> <FORMATTED_ID>
H3D-005462

> <MOLFORMULA>
C39H63NO5

> <Exact Mass>
625.47

> <XLogP>
7.95

> <TPSA_NOPS>
95.9

> <s_m_source_file>
ligprep_h3d.sdf

> <i_m_source_file_index>
2373

> <i_lp_mmshare_version>
55123

> <i_f3d_flags>
0

> <s_epik_input>
W0NIMl0xW0NIMl1bQ0gyXVtDSDJdW0NIMl1bQ0hdMVtDQEhdKFtDSDNdKVtOSF1DKD1PKS9DKFtDSDJdW0NIMl1bQ0hdPUMoW0NIM10pW0NIM10pPUMoXFtDQEhdKFtDSDJdMilPQyg9TylbQ0gzXSlbQ0BASF0oW0NAXTIzW0NIM10pW0NIMl1bQ0BASF0oW09IXSlbQ0BIXTRbQ0BdNShbQ0gzXSlbQ0BIXShbQ0BIXShbQ0gzXSlbQ0BIXShbT0hdKVtDSDJdW0NIMl01KVtDSDJdW0NIMl1bQ0BdMzRbQ0gzXQ==

> <s_epik_cmdline>
J2VwaWtfcHl0aG9uJywgJy1waHQnLCAnMC41JywgJy1waCcsICc3LjUnLCAnLXRuJywgJzgnLCAnLW1hJywgJzUwMCcsICctaW1hZScsICc8aW5maWxlLm1hZT4nLCAnLW9tYWUnLCAnPG91dGZpbGUubWFlPic=

> <r_lp_tautomer_probability>
1

> <r_epik_Ionization_Penalty>
4.231e-06

> <r_epik_Ionization_Penalty_Charging>
0

> <r_epik_Ionization_Penalty_Neutral>
4.231e-06

> <r_epik_State_Penalty>
-0

> <r_epik_Charging_Adjusted_Penalty>
0

> <i_epik_Tot_Q>
0

> <i_epik_Tot_abs_Q>
0

> <s_epik_Chemistry_Notes>
This compound has an ester and may undergo hydrolysis at high or low pH.

> <s_lp_Force_Field>
S-OPLS

> <r_lp_Energy>
82.0748

> <b_lp_Chiralities_Consistent>
1

> <s_lp_Variant>
ligprep_h3d.sdf:2373-1

> <ROCS_ShapeQuery>
_7L13

> <ROCS_TanimotoCombo>
0.692 

> <ROCS_ShapeTanimoto>
0.597 

> <ROCS_ColorTanimoto>
0.095 

> <ROCS_RefTversky>
0.806 

> <ROCS_RefColorTversky>
0.216 

> <ROCS_RefTverskyCombo>
1.022 

> <ROCS_FitTversky>
0.697 

> <ROCS_FitColorTversky>
0.145 

> <ROCS_FitTverskyCombo>
0.843 

> <ROCS_ColorScore>
-2.001

> <ROCS_Overlap>
1349.777

> <ROCS_Rank>
162                 

$$$$
ligprep_h3d.sdf:5150_1357
  -OEChem-08212117123D

 65 70  0     0  0  0  0  0  0999 V2000
  -25.9144   -4.2766  -22.4138 C   0  0  0  0  0  0  0  0  0  0  0  0
  -19.3927   -6.3297  -36.1327 C   0  0  0  0  0  0  0  0  0  0  0  0
  -19.4272   -7.4843  -35.3509 C   0  0  0  0  0  0  0  0  0  0  0  0
  -19.8822   -5.1272  -35.6228 C   0  0  0  0  0  0  0  0  0  0  0  0
  -19.9513   -7.4365  -34.0591 C   0  0  0  0  0  0  0  0  0  0  0  0
  -20.4063   -5.0793  -34.3310 C   0  0  0  0  0  0  0  0  0  0  0  0
  -22.9560   -3.9689  -28.8022 C   0  0  0  0  0  0  0  0  0  0  0  0
  -20.3457   -4.9128  -29.2783 C   0  0  0  0  0  0  0  0  0  0  0  0
  -14.4535   -5.6789  -25.5601 C   0  0  0  0  0  0  0  0  0  0  0  0
  -14.9918   -6.7884  -26.1682 C   0  0  0  0  0  0  0  0  0  0  0  0
  -22.0815   -4.2139  -27.7504 C   0  0  0  0  0  0  0  0  0  0  0  0
  -20.4409   -6.2340  -33.5492 C   0  0  0  0  0  0  0  0  0  0  0  0
  -20.7815   -4.6816  -27.9785 C   0  0  0  0  0  0  0  0  0  0  0  0
  -22.5144   -4.1929  -30.1055 C   0  0  0  0  0  0  0  0  0  0  0  0
  -21.2174   -4.6632  -30.3420 C   0  0  0  0  0  0  0  0  0  0  0  0
  -16.5006   -5.1813  -25.9213 C   0  0  0  0  0  0  0  0  0  0  0  0
  -17.8083   -4.6295  -26.0558 C   0  0  0  0  0  0  0  0  0  0  0  0
  -18.5373   -6.7007  -27.1132 C   0  0  0  0  0  0  0  0  0  0  0  0
  -17.3085   -7.2276  -26.9910 C   0  0  0  0  0  0  0  0  0  0  0  0
  -18.8072   -5.3429  -26.6274 C   0  0  0  0  0  0  0  0  0  0  0  0
  -22.8995   -2.7155  -25.8725 C   0  0  0  0  0  0  0  0  0  0  0  0
  -23.3099   -5.1943  -25.7941 C   0  0  0  0  0  0  0  0  0  0  0  0
  -23.2697   -2.6528  -24.3881 C   0  0  0  0  0  0  0  0  0  0  0  0
  -23.7008   -5.0378  -24.3200 C   0  0  0  0  0  0  0  0  0  0  0  0
  -20.8983   -4.3116  -25.7031 C   0  0  0  0  0  0  0  0  0  0  0  0
  -22.3392   -4.0933  -26.2683 C   0  0  0  0  0  0  0  0  0  0  0  0
  -23.3323   -2.6263  -31.6968 C   0  0  0  0  0  0  0  0  0  0  0  0
  -24.6467   -3.5870  -22.6468 C   0  0  0  0  0  0  0  0  0  0  0  0
  -21.0050   -6.1818  -32.1597 C   0  0  0  0  0  0  0  0  0  0  0  0
  -26.9203   -4.8234  -22.2254 N   0  0  0  0  0  0  0  0  0  0  0  0
  -15.3907   -4.6885  -25.4100 N   0  0  0  0  0  0  0  0  0  0  0  0
  -16.3051   -6.4706  -26.4004 N   0  0  0  0  0  0  0  0  0  0  0  0
  -20.0663   -4.8643  -26.7790 N   0  0  0  0  0  0  0  0  0  0  0  0
  -24.2417   -3.6999  -24.0478 N   0  0  0  0  0  0  0  0  0  0  0  0
  -23.3563   -3.9419  -31.1476 O   0  0  0  0  0  0  0  0  0  0  0  0
  -20.7884   -4.8811  -31.6180 O   0  0  0  0  0  0  0  0  0  0  0  0
  -18.9833   -6.3669  -37.1380 H   0  0  0  0  0  0  0  0  0  0  0  0
  -19.0451   -8.4205  -35.7474 H   0  0  0  0  0  0  0  0  0  0  0  0
  -19.8544   -4.2278  -36.2308 H   0  0  0  0  0  0  0  0  0  0  0  0
  -19.9744   -8.3411  -33.4572 H   0  0  0  0  0  0  0  0  0  0  0  0
  -20.7856   -4.1380  -33.9421 H   0  0  0  0  0  0  0  0  0  0  0  0
  -23.9600   -3.6003  -28.6174 H   0  0  0  0  0  0  0  0  0  0  0  0
  -19.3473   -5.2876  -29.4812 H   0  0  0  0  0  0  0  0  0  0  0  0
  -13.4364   -5.5438  -25.2224 H   0  0  0  0  0  0  0  0  0  0  0  0
  -14.5689   -7.7437  -26.4472 H   0  0  0  0  0  0  0  0  0  0  0  0
  -17.9818   -3.6231  -25.6876 H   0  0  0  0  0  0  0  0  0  0  0  0
  -19.3394   -7.2699  -27.5707 H   0  0  0  0  0  0  0  0  0  0  0  0
  -17.0600   -8.2245  -27.3343 H   0  0  0  0  0  0  0  0  0  0  0  0
  -23.7976   -2.4945  -26.4628 H   0  0  0  0  0  0  0  0  0  0  0  0
  -22.1792   -1.9215  -26.1006 H   0  0  0  0  0  0  0  0  0  0  0  0
  -22.8734   -6.1908  -25.9535 H   0  0  0  0  0  0  0  0  0  0  0  0
  -24.2287   -5.1735  -26.3993 H   0  0  0  0  0  0  0  0  0  0  0  0
  -22.3711   -2.7375  -23.7690 H   0  0  0  0  0  0  0  0  0  0  0  0
  -23.7065   -1.6686  -24.1909 H   0  0  0  0  0  0  0  0  0  0  0  0
  -24.4621   -5.7968  -24.0910 H   0  0  0  0  0  0  0  0  0  0  0  0
  -22.8354   -5.2520  -23.6755 H   0  0  0  0  0  0  0  0  0  0  0  0
  -20.4590   -3.3845  -25.3184 H   0  0  0  0  0  0  0  0  0  0  0  0
  -20.9091   -5.0312  -24.8736 H   0  0  0  0  0  0  0  0  0  0  0  0
  -24.0490   -2.5607  -32.5191 H   0  0  0  0  0  0  0  0  0  0  0  0
  -22.3259   -2.3994  -32.0576 H   0  0  0  0  0  0  0  0  0  0  0  0
  -23.6081   -1.9110  -30.9183 H   0  0  0  0  0  0  0  0  0  0  0  0
  -24.7280   -2.5221  -22.4108 H   0  0  0  0  0  0  0  0  0  0  0  0
  -23.8470   -4.0155  -22.0359 H   0  0  0  0  0  0  0  0  0  0  0  0
  -22.0800   -6.3919  -32.1653 H   0  0  0  0  0  0  0  0  0  0  0  0
  -20.5205   -6.9242  -31.5164 H   0  0  0  0  0  0  0  0  0  0  0  0
  1 28  1  0  0  0  0
  1 30  3  0  0  0  0
  2  3  2  0  0  0  0
  2  4  1  0  0  0  0
  3  5  1  0  0  0  0
  4  6  2  0  0  0  0
  5 12  2  0  0  0  0
  6 12  1  0  0  0  0
  7 11  1  0  0  0  0
  7 14  2  0  0  0  0
  8 13  1  0  0  0  0
  8 15  2  0  0  0  0
  9 10  2  0  0  0  0
  9 31  1  0  0  0  0
 10 32  1  0  0  0  0
 11 13  2  0  0  0  0
 11 26  1  0  0  0  0
 12 29  1  0  0  0  0
 13 33  1  0  0  0  0
 14 15  1  0  0  0  0
 14 35  1  0  0  0  0
 15 36  1  0  0  0  0
 16 17  1  0  0  0  0
 16 31  2  0  0  0  0
 16 32  1  0  0  0  0
 17 20  2  0  0  0  0
 18 19  2  0  0  0  0
 18 20  1  0  0  0  0
 19 32  1  0  0  0  0
 20 33  1  0  0  0  0
 21 23  1  0  0  0  0
 21 26  1  0  0  0  0
 22 24  1  0  0  0  0
 22 26  1  0  0  0  0
 23 34  1  0  0  0  0
 24 34  1  0  0  0  0
 25 26  1  0  0  0  0
 25 33  1  0  0  0  0
 27 35  1  0  0  0  0
 28 34  1  0  0  0  0
 29 36  1  0  0  0  0
  2 37  1  0  0  0  0
  3 38  1  0  0  0  0
  4 39  1  0  0  0  0
  5 40  1  0  0  0  0
  6 41  1  0  0  0  0
  7 42  1  0  0  0  0
  8 43  1  0  0  0  0
  9 44  1  0  0  0  0
 10 45  1  0  0  0  0
 17 46  1  0  0  0  0
 18 47  1  0  0  0  0
 19 48  1  0  0  0  0
 21 49  1  0  0  0  0
 21 50  1  0  0  0  0
 22 51  1  0  0  0  0
 22 52  1  0  0  0  0
 23 53  1  0  0  0  0
 23 54  1  0  0  0  0
 24 55  1  0  0  0  0
 24 56  1  0  0  0  0
 25 57  1  0  0  0  0
 25 58  1  0  0  0  0
 27 59  1  0  0  0  0
 27 60  1  0  0  0  0
 27 61  1  0  0  0  0
 28 62  1  0  0  0  0
 28 63  1  0  0  0  0
 29 64  1  0  0  0  0
 29 65  1  0  0  0  0
M  END
> <SMILES>
COc1cc2c(cc1OCc1ccccc1)N(CC12CCN(CC1)CC#N)c1ccn2ccnc2c1

> <FORMATTED_ID>
H3D-013907

> <MOLFORMULA>
C29H29N5O2

> <Exact Mass>
479.23

> <XLogP>
5.6

> <TPSA_NOPS>
66

> <s_m_source_file>
ligprep_h3d.sdf

> <i_m_source_file_index>
5150

> <i_lp_mmshare_version>
55123

> <i_f3d_flags>
0

> <s_epik_input>
W2NIXTFbY0hdW2NIXVtjSF1bY0hdYzFbQ0gyXU9jKGMoW2NIXTIpT1tDSDNdKVtjSF1jKGMyQzM0W0NIMl1bQ0gyXU4oW0NIMl1bQ0gyXTQpW0NIMl1DI04pTihbQ0gyXTMpYyhbY0hdW2NIXTUpW2NIXWMobjU2KW5bY0hdW2NIXTY=

> <s_epik_cmdline>
J2VwaWtfcHl0aG9uJywgJy1waHQnLCAnMC41JywgJy1waCcsICc3LjUnLCAnLXRuJywgJzgnLCAnLW1hJywgJzUwMCcsICctaW1hZScsICc8aW5maWxlLm1hZT4nLCAnLW9tYWUnLCAnPG91dGZpbGUubWFlPic=

> <r_lp_tautomer_probability>
1

> <r_epik_Ionization_Penalty>
0.531177

> <r_epik_Ionization_Penalty_Charging>
0.531014

> <r_epik_Ionization_Penalty_Neutral>
0.000162976

> <r_epik_State_Penalty>
0.539806

> <r_epik_Charging_Adjusted_Penalty>
1.07082

> <i_epik_Tot_Q>
0

> <i_epik_Tot_abs_Q>
0

> <s_lp_Force_Field>
S-OPLS

> <r_lp_Energy>
61.5488

> <b_lp_Chiralities_Consistent>
1

> <s_lp_Variant>
ligprep_h3d.sdf:5150-2

> <ROCS_ShapeQuery>
_7L13

> <ROCS_TanimotoCombo>
0.781 

> <ROCS_ShapeTanimoto>
0.670 

> <ROCS_ColorTanimoto>
0.111 

> <ROCS_RefTversky>
0.806 

> <ROCS_RefColorTversky>
0.221 

> <ROCS_RefTverskyCombo>
1.026 

> <ROCS_FitTversky>
0.798 

> <ROCS_FitColorTversky>
0.184 

> <ROCS_FitTverskyCombo>
0.982 

> <ROCS_ColorScore>
-2.008

> <ROCS_Overlap>
1338.656

> <ROCS_Rank>
163                 

$$$$
ligprep_h3d.sdf:5322_1452
  -OEChem-08212117123D

 69 75  0     0  0  0  0  0  0999 V2000
  -18.4287   -6.4230  -35.7726 C   0  0  0  0  0  0  0  0  0  0  0  0
  -19.4010   -7.3296  -35.3504 C   0  0  0  0  0  0  0  0  0  0  0  0
  -18.3860   -5.1408  -35.2250 C   0  0  0  0  0  0  0  0  0  0  0  0
  -20.3307   -6.9540  -34.3807 C   0  0  0  0  0  0  0  0  0  0  0  0
  -19.3157   -4.7652  -34.2553 C   0  0  0  0  0  0  0  0  0  0  0  0
  -22.8911   -4.0542  -28.9973 C   0  0  0  0  0  0  0  0  0  0  0  0
  -20.1824   -4.5257  -29.6078 C   0  0  0  0  0  0  0  0  0  0  0  0
  -14.4969   -6.0197  -26.8672 C   0  0  0  0  0  0  0  0  0  0  0  0
  -14.0284   -4.9511  -26.1486 C   0  0  0  0  0  0  0  0  0  0  0  0
  -21.9593   -4.2765  -27.9905 C   0  0  0  0  0  0  0  0  0  0  0  0
  -20.2881   -5.6718  -33.8332 C   0  0  0  0  0  0  0  0  0  0  0  0
  -20.6103   -4.5097  -28.2852 C   0  0  0  0  0  0  0  0  0  0  0  0
  -22.4584   -4.0613  -30.3225 C   0  0  0  0  0  0  0  0  0  0  0  0
  -21.1123   -4.2969  -30.6260 C   0  0  0  0  0  0  0  0  0  0  0  0
  -16.2069   -4.6842  -26.4079 C   0  0  0  0  0  0  0  0  0  0  0  0
  -17.6207   -4.2211  -26.4064 C   0  0  0  0  0  0  0  0  0  0  0  0
  -18.0471   -6.2443  -27.6800 C   0  0  0  0  0  0  0  0  0  0  0  0
  -16.7602   -6.6405  -27.6661 C   0  0  0  0  0  0  0  0  0  0  0  0
  -18.5206   -5.0040  -27.0406 C   0  0  0  0  0  0  0  0  0  0  0  0
  -22.9381   -3.1317  -25.9533 C   0  0  0  0  0  0  0  0  0  0  0  0
  -22.9566   -5.6611  -26.1568 C   0  0  0  0  0  0  0  0  0  0  0  0
  -23.2448   -3.2567  -24.4605 C   0  0  0  0  0  0  0  0  0  0  0  0
  -23.3026   -5.7743  -24.6697 C   0  0  0  0  0  0  0  0  0  0  0  0
  -20.7162   -4.4129  -25.9820 C   0  0  0  0  0  0  0  0  0  0  0  0
  -25.5522   -4.9340  -22.5100 C   0  0  0  0  0  0  0  0  0  0  0  0
  -26.2279   -4.2435  -23.6615 C   0  0  0  0  0  0  0  0  0  0  0  0
  -22.1909   -4.3638  -26.5001 C   0  0  0  0  0  0  0  0  0  0  0  0
  -24.0273   -4.5334  -24.1425 C   0  0  0  0  0  0  0  0  0  0  0  0
  -23.5501   -2.4721  -31.7148 C   0  0  0  0  0  0  0  0  0  0  0  0
  -21.2880   -5.2671  -32.7902 C   0  0  0  0  0  0  0  0  0  0  0  0
  -15.8550   -5.8322  -27.0165 N   0  0  0  0  0  0  0  0  0  0  0  0
  -15.1074   -4.1420  -25.8782 N   0  3  0  0  0  0  0  0  0  0  0  0
  -19.8417   -4.7118  -27.1226 N   0  0  0  0  0  0  0  0  0  0  0  0
  -24.1716   -4.6391  -22.7157 O   0  0  0  0  0  0  0  0  0  0  0  0
  -25.3313   -4.4646  -24.7487 O   0  0  0  0  0  0  0  0  0  0  0  0
  -23.3584   -3.8286  -31.3195 O   0  0  0  0  0  0  0  0  0  0  0  0
  -20.6926   -4.3044  -31.9235 O   0  0  0  0  0  0  0  0  0  0  0  0
  -17.7041   -6.7161  -36.5266 H   0  0  0  0  0  0  0  0  0  0  0  0
  -19.4338   -8.3284  -35.7758 H   0  0  0  0  0  0  0  0  0  0  0  0
  -17.6285   -4.4350  -35.5527 H   0  0  0  0  0  0  0  0  0  0  0  0
  -21.0849   -7.6670  -34.0580 H   0  0  0  0  0  0  0  0  0  0  0  0
  -19.2749   -3.7641  -33.8344 H   0  0  0  0  0  0  0  0  0  0  0  0
  -23.9337   -3.8669  -28.7601 H   0  0  0  0  0  0  0  0  0  0  0  0
  -19.1449   -4.7173  -29.8633 H   0  0  0  0  0  0  0  0  0  0  0  0
  -14.0470   -6.8948  -27.2966 H   0  0  0  0  0  0  0  0  0  0  0  0
  -13.0711   -4.6381  -25.7815 H   0  0  0  0  0  0  0  0  0  0  0  0
  -17.8812   -3.2943  -25.9106 H   0  0  0  0  0  0  0  0  0  0  0  0
  -18.7844   -6.8618  -28.1853 H   0  0  0  0  0  0  0  0  0  0  0  0
  -16.4023   -7.5491  -28.1326 H   0  0  0  0  0  0  0  0  0  0  0  0
  -23.8833   -3.0002  -26.4921 H   0  0  0  0  0  0  0  0  0  0  0  0
  -22.3586   -2.2183  -26.1251 H   0  0  0  0  0  0  0  0  0  0  0  0
  -22.3759   -6.5441  -26.4629 H   0  0  0  0  0  0  0  0  0  0  0  0
  -23.8905   -5.7118  -26.7365 H   0  0  0  0  0  0  0  0  0  0  0  0
  -22.3193   -3.2351  -23.8768 H   0  0  0  0  0  0  0  0  0  0  0  0
  -23.8224   -2.3803  -24.1466 H   0  0  0  0  0  0  0  0  0  0  0  0
  -23.9324   -6.6632  -24.5226 H   0  0  0  0  0  0  0  0  0  0  0  0
  -22.3922   -5.9543  -24.0806 H   0  0  0  0  0  0  0  0  0  0  0  0
  -20.4137   -3.4751  -25.5029 H   0  0  0  0  0  0  0  0  0  0  0  0
  -20.5905   -5.2096  -25.2366 H   0  0  0  0  0  0  0  0  0  0  0  0
  -25.8533   -4.5042  -21.5483 H   0  0  0  0  0  0  0  0  0  0  0  0
  -25.7193   -6.0136  -22.4922 H   0  0  0  0  0  0  0  0  0  0  0  0
  -27.1860   -4.7136  -23.9085 H   0  0  0  0  0  0  0  0  0  0  0  0
  -26.3814   -3.1741  -23.4973 H   0  0  0  0  0  0  0  0  0  0  0  0
  -24.2918   -2.4267  -32.5159 H   0  0  0  0  0  0  0  0  0  0  0  0
  -22.6006   -2.0542  -32.0587 H   0  0  0  0  0  0  0  0  0  0  0  0
  -23.9086   -1.8990  -30.8565 H   0  0  0  0  0  0  0  0  0  0  0  0
  -22.1797   -4.8292  -33.2514 H   0  0  0  0  0  0  0  0  0  0  0  0
  -21.6054   -6.1337  -32.2004 H   0  0  0  0  0  0  0  0  0  0  0  0
  -15.0731   -3.2696  -25.3580 H   0  0  0  0  0  0  0  0  0  0  0  0
  1  2  2  0  0  0  0
  1  3  1  0  0  0  0
  2  4  1  0  0  0  0
  3  5  2  0  0  0  0
  4 11  2  0  0  0  0
  5 11  1  0  0  0  0
  6 10  1  0  0  0  0
  6 13  2  0  0  0  0
  7 12  1  0  0  0  0
  7 14  2  0  0  0  0
  8  9  2  0  0  0  0
  8 31  1  0  0  0  0
  9 32  1  0  0  0  0
 10 12  2  0  0  0  0
 10 27  1  0  0  0  0
 11 30  1  0  0  0  0
 12 33  1  0  0  0  0
 13 14  1  0  0  0  0
 13 36  1  0  0  0  0
 14 37  1  0  0  0  0
 15 16  1  0  0  0  0
 15 31  1  0  0  0  0
 15 32  2  0  0  0  0
 16 19  2  0  0  0  0
 17 18  2  0  0  0  0
 17 19  1  0  0  0  0
 18 31  1  0  0  0  0
 19 33  1  0  0  0  0
 20 22  1  0  0  0  0
 20 27  1  0  0  0  0
 21 23  1  0  0  0  0
 21 27  1  0  0  0  0
 22 28  1  0  0  0  0
 23 28  1  0  0  0  0
 24 27  1  0  0  0  0
 24 33  1  0  0  0  0
 25 26  1  0  0  0  0
 25 34  1  0  0  0  0
 26 35  1  0  0  0  0
 28 34  1  0  0  0  0
 28 35  1  0  0  0  0
 29 36  1  0  0  0  0
 30 37  1  0  0  0  0
  1 38  1  0  0  0  0
  2 39  1  0  0  0  0
  3 40  1  0  0  0  0
  4 41  1  0  0  0  0
  5 42  1  0  0  0  0
  6 43  1  0  0  0  0
  7 44  1  0  0  0  0
  8 45  1  0  0  0  0
  9 46  1  0  0  0  0
 16 47  1  0  0  0  0
 17 48  1  0  0  0  0
 18 49  1  0  0  0  0
 20 50  1  0  0  0  0
 20 51  1  0  0  0  0
 21 52  1  0  0  0  0
 21 53  1  0  0  0  0
 22 54  1  0  0  0  0
 22 55  1  0  0  0  0
 23 56  1  0  0  0  0
 23 57  1  0  0  0  0
 24 58  1  0  0  0  0
 24 59  1  0  0  0  0
 25 60  1  0  0  0  0
 25 61  1  0  0  0  0
 26 62  1  0  0  0  0
 26 63  1  0  0  0  0
 29 64  1  0  0  0  0
 29 65  1  0  0  0  0
 29 66  1  0  0  0  0
 30 67  1  0  0  0  0
 30 68  1  0  0  0  0
 32 69  1  0  0  0  0
M  CHG  1  32   1
M  END
> <SMILES>
COc1cc2c(cc1OCc1ccccc1)N(CC12CCC2(CC1)OCCO2)c1ccn2ccnc2c1

> <FORMATTED_ID>
H3D-014839

> <MOLFORMULA>
C30H31N3O4

> <Exact Mass>
497.23

> <XLogP>
6.97

> <TPSA_NOPS>
57.5

> <s_m_source_file>
ligprep_h3d.sdf

> <i_m_source_file_index>
5322

> <i_lp_mmshare_version>
55123

> <i_f3d_flags>
0

> <s_epik_input>
W2NIXTFbY0hdW2NIXVtjSF1bY0hdYzFbQ0gyXU9jKGMoW2NIXTIpT1tDSDNdKVtjSF1jKE4oW0NIMl0zKWMoW2NIXVtjSF00KVtjSF1jKG40NSluW2NIXVtjSF01KWMyQzM2W0NIMl1bQ0gyXUM3KFtDSDJdW0NIMl02KU9bQ0gyXVtDSDJdTzc=

> <s_epik_cmdline>
J2VwaWtfcHl0aG9uJywgJy1waHQnLCAnMC41JywgJy1waCcsICc3LjUnLCAnLXRuJywgJzgnLCAnLW1hJywgJzUwMCcsICctaW1hZScsICc8aW5maWxlLm1hZT4nLCAnLW9tYWUnLCAnPG91dGZpbGUubWFlPic=

> <r_lp_tautomer_probability>
1

> <r_epik_Ionization_Penalty>
0.318882

> <r_epik_Ionization_Penalty_Charging>
0

> <r_epik_Ionization_Penalty_Neutral>
0.318882

> <r_epik_State_Penalty>
0.313322

> <r_epik_Charging_Adjusted_Penalty>
0.313322

> <i_epik_Tot_Q>
1

> <i_epik_Tot_abs_Q>
1

> <s_lp_Force_Field>
S-OPLS

> <r_lp_Energy>
60.7617

> <b_lp_Chiralities_Consistent>
1

> <s_lp_Variant>
ligprep_h3d.sdf:5322-1

> <ROCS_ShapeQuery>
_7L13

> <ROCS_TanimotoCombo>
0.724 

> <ROCS_ShapeTanimoto>
0.649 

> <ROCS_ColorTanimoto>
0.075 

> <ROCS_RefTversky>
0.806 

> <ROCS_RefColorTversky>
0.167 

> <ROCS_RefTverskyCombo>
0.973 

> <ROCS_FitTversky>
0.770 

> <ROCS_FitColorTversky>
0.120 

> <ROCS_FitTverskyCombo>
0.890 

> <ROCS_ColorScore>
-1.536

> <ROCS_Overlap>
1341.359

> <ROCS_Rank>
164                 

$$$$
ligprep_h3d.sdf:1575_1709
  -OEChem-08212117123D

 66 70  0     0  0  0  0  0  0999 V2000
  -25.8354   -5.2380  -22.7306 C   0  0  0  0  0  0  0  0  0  0  0  0
  -25.5547   -5.0736  -24.0870 C   0  0  0  0  0  0  0  0  0  0  0  0
  -24.8963   -4.8555  -21.7727 C   0  0  0  0  0  0  0  0  0  0  0  0
  -22.4314   -2.8092  -30.5021 C   0  0  0  0  0  0  0  0  0  0  0  0
  -21.4420   -4.9651  -30.8988 C   0  0  0  0  0  0  0  0  0  0  0  0
  -23.3958   -4.1444  -23.5276 C   0  0  0  0  0  0  0  0  0  0  0  0
  -20.5540   -4.4094  -27.9871 C   0  0  0  0  0  0  0  0  0  0  0  0
  -22.5111   -2.6528  -31.8765 C   0  0  0  0  0  0  0  0  0  0  0  0
  -21.8854   -3.9903  -30.0120 C   0  0  0  0  0  0  0  0  0  0  0  0
  -24.3349   -4.5268  -24.4855 C   0  0  0  0  0  0  0  0  0  0  0  0
  -23.6765   -4.3087  -22.1712 C   0  0  0  0  0  0  0  0  0  0  0  0
  -21.7787   -4.2022  -28.5883 C   0  0  0  0  0  0  0  0  0  0  0  0
  -20.5842   -4.5993  -26.6206 C   0  0  0  0  0  0  0  0  0  0  0  0
  -21.5662   -4.7123  -32.2555 C   0  0  0  0  0  0  0  0  0  0  0  0
  -22.8463   -4.3781  -26.5892 C   0  0  0  0  0  0  0  0  0  0  0  0
  -19.5542   -6.5879  -36.4876 C   0  0  0  0  0  0  0  0  0  0  0  0
  -18.8945   -7.0675  -35.2249 C   0  0  0  0  0  0  0  0  0  0  0  0
  -19.3175   -5.6354  -24.7593 C   0  0  0  0  0  0  0  0  0  0  0  0
  -18.3373   -3.7669  -26.0695 C   0  0  0  0  0  0  0  0  0  0  0  0
  -17.8982   -6.1539  -24.5141 C   0  0  0  0  0  0  0  0  0  0  0  0
  -16.9501   -4.3464  -25.7830 C   0  0  0  0  0  0  0  0  0  0  0  0
  -20.3482   -6.6835  -35.2143 C   0  0  0  0  0  0  0  0  0  0  0  0
  -15.5864   -5.5531  -24.2069 C   0  0  0  0  0  0  0  0  0  0  0  0
  -21.5130   -5.2821  -20.7133 C   0  0  0  0  0  0  0  0  0  0  0  0
  -20.7923   -5.4461  -34.5112 C   0  0  0  0  0  0  0  0  0  0  0  0
  -22.0911   -3.5772  -32.7690 N   0  0  0  0  0  0  0  0  0  0  0  0
  -22.9490   -4.1802  -27.9173 N   0  0  0  0  0  0  0  0  0  0  0  0
  -21.7166   -4.5897  -25.8873 N   0  0  0  0  0  0  0  0  0  0  0  0
  -19.3626   -4.8135  -25.9725 N   0  0  0  0  0  0  0  0  0  0  0  0
  -16.9294   -5.0512  -24.4953 N   0  0  0  0  0  0  0  0  0  0  0  0
  -24.0515   -4.3617  -25.8542 N   0  0  0  0  0  0  0  0  0  0  0  0
  -21.1121   -5.7157  -33.1474 N   0  0  0  0  0  0  0  0  0  0  0  0
  -21.6498   -2.8058  -21.5642 O   0  0  0  0  0  0  0  0  0  0  0  0
  -23.1923   -3.5546  -19.7187 O   0  0  0  0  0  0  0  0  0  0  0  0
  -22.5022   -3.8269  -20.9721 S   0  0  0  0  0  0  0  0  0  0  0  0
  -26.7851   -5.6634  -22.4202 H   0  0  0  0  0  0  0  0  0  0  0  0
  -26.2936   -5.3755  -24.8248 H   0  0  0  0  0  0  0  0  0  0  0  0
  -25.1256   -4.9870  -20.7185 H   0  0  0  0  0  0  0  0  0  0  0  0
  -22.7875   -2.0252  -29.8414 H   0  0  0  0  0  0  0  0  0  0  0  0
  -21.0113   -5.8956  -30.5397 H   0  0  0  0  0  0  0  0  0  0  0  0
  -22.4443   -3.7181  -23.8382 H   0  0  0  0  0  0  0  0  0  0  0  0
  -19.6285   -4.4224  -28.5513 H   0  0  0  0  0  0  0  0  0  0  0  0
  -22.9277   -1.7493  -32.3095 H   0  0  0  0  0  0  0  0  0  0  0  0
  -19.2817   -5.6069  -36.8568 H   0  0  0  0  0  0  0  0  0  0  0  0
  -19.7531   -7.3192  -37.2615 H   0  0  0  0  0  0  0  0  0  0  0  0
  -18.6513   -8.1205  -35.1517 H   0  0  0  0  0  0  0  0  0  0  0  0
  -18.1800   -6.4078  -34.7483 H   0  0  0  0  0  0  0  0  0  0  0  0
  -19.9954   -6.4924  -24.8569 H   0  0  0  0  0  0  0  0  0  0  0  0
  -19.6520   -5.0437  -23.8967 H   0  0  0  0  0  0  0  0  0  0  0  0
  -18.5602   -2.9621  -25.3563 H   0  0  0  0  0  0  0  0  0  0  0  0
  -18.3378   -3.3292  -27.0755 H   0  0  0  0  0  0  0  0  0  0  0  0
  -17.8889   -6.6724  -23.5474 H   0  0  0  0  0  0  0  0  0  0  0  0
  -17.6382   -6.8958  -25.2812 H   0  0  0  0  0  0  0  0  0  0  0  0
  -16.6508   -5.0124  -26.6037 H   0  0  0  0  0  0  0  0  0  0  0  0
  -16.2331   -3.5164  -25.7630 H   0  0  0  0  0  0  0  0  0  0  0  0
  -21.0783   -7.4800  -35.1361 H   0  0  0  0  0  0  0  0  0  0  0  0
  -14.8751   -4.7140  -24.1969 H   0  0  0  0  0  0  0  0  0  0  0  0
  -15.5831   -6.0481  -23.2245 H   0  0  0  0  0  0  0  0  0  0  0  0
  -15.2906   -6.2751  -24.9822 H   0  0  0  0  0  0  0  0  0  0  0  0
  -20.7502   -5.0519  -19.9679 H   0  0  0  0  0  0  0  0  0  0  0  0
  -22.1642   -6.0827  -20.3594 H   0  0  0  0  0  0  0  0  0  0  0  0
  -21.0498   -5.5568  -21.6622 H   0  0  0  0  0  0  0  0  0  0  0  0
  -19.9836   -4.7013  -34.5499 H   0  0  0  0  0  0  0  0  0  0  0  0
  -21.6836   -5.0461  -35.0167 H   0  0  0  0  0  0  0  0  0  0  0  0
  -24.8736   -4.1980  -26.4270 H   0  0  0  0  0  0  0  0  0  0  0  0
  -21.0244   -6.6391  -32.7752 H   0  0  0  0  0  0  0  0  0  0  0  0
  1  2  1  0  0  0  0
  1  3  2  0  0  0  0
  2 10  2  0  0  0  0
  3 11  1  0  0  0  0
  4  8  1  0  0  0  0
  4  9  2  0  0  0  0
  5  9  1  0  0  0  0
  5 14  2  0  0  0  0
  6 10  1  0  0  0  0
  6 11  2  0  0  0  0
  7 12  1  0  0  0  0
  7 13  2  0  0  0  0
  8 26  2  0  0  0  0
  9 12  1  0  0  0  0
 10 31  1  0  0  0  0
 11 35  1  0  0  0  0
 12 27  2  0  0  0  0
 13 28  1  0  0  0  0
 13 29  1  0  0  0  0
 14 26  1  0  0  0  0
 14 32  1  0  0  0  0
 15 27  1  0  0  0  0
 15 28  2  0  0  0  0
 15 31  1  0  0  0  0
 16 17  1  0  0  0  0
 16 22  1  0  0  0  0
 17 22  1  0  0  0  0
 18 20  1  0  0  0  0
 18 29  1  0  0  0  0
 19 21  1  0  0  0  0
 19 29  1  0  0  0  0
 20 30  1  0  0  0  0
 21 30  1  0  0  0  0
 22 25  1  0  0  0  0
 23 30  1  0  0  0  0
 24 35  1  0  0  0  0
 25 32  1  0  0  0  0
 33 35  2  0  0  0  0
 34 35  2  0  0  0  0
  1 36  1  0  0  0  0
  2 37  1  0  0  0  0
  3 38  1  0  0  0  0
  4 39  1  0  0  0  0
  5 40  1  0  0  0  0
  6 41  1  0  0  0  0
  7 42  1  0  0  0  0
  8 43  1  0  0  0  0
 16 44  1  0  0  0  0
 16 45  1  0  0  0  0
 17 46  1  0  0  0  0
 17 47  1  0  0  0  0
 18 48  1  0  0  0  0
 18 49  1  0  0  0  0
 19 50  1  0  0  0  0
 19 51  1  0  0  0  0
 20 52  1  0  0  0  0
 20 53  1  0  0  0  0
 21 54  1  0  0  0  0
 21 55  1  0  0  0  0
 22 56  1  0  0  0  0
 23 57  1  0  0  0  0
 23 58  1  0  0  0  0
 23 59  1  0  0  0  0
 24 60  1  0  0  0  0
 24 61  1  0  0  0  0
 24 62  1  0  0  0  0
 25 63  1  0  0  0  0
 25 64  1  0  0  0  0
 31 65  1  0  0  0  0
 32 66  1  0  0  0  0
M  END
> <SMILES>
CN1CCN(CC1)c1cc(nc(n1)Nc1cccc(c1)S(=O)(=O)C)-c1ccnc(c1)NCC1CC1

> <FORMATTED_ID>
H3D-014932

> <MOLFORMULA>
C25H31N7O2S

> <Exact Mass>
493.23

> <XLogP>
2.33

> <TPSA_NOPS>
111.7

> <s_m_source_file>
ligprep_h3d.sdf

> <i_m_source_file_index>
1575

> <i_lp_mmshare_version>
55123

> <i_f3d_flags>
0

> <s_epik_input>
W0NIMl0xW0NIMl1bQ0hdMVtDSDJdW05IXWMoW2NIXTIpbltjSF1bY0hdYzItYyhbY0hdYzNOKFtDSDJdW0NIMl00KVtDSDJdW0NIMl1ONFtDSDNdKW5jKG4zKVtOSF1jNVtjSF1bY0hdW2NIXWMoW2NIXTUpUyg9TykoPU8pW0NIM10=

> <s_epik_cmdline>
J2VwaWtfcHl0aG9uJywgJy1waHQnLCAnMC41JywgJy1waCcsICc3LjUnLCAnLXRuJywgJzgnLCAnLW1hJywgJzUwMCcsICctaW1hZScsICc8aW5maWxlLm1hZT4nLCAnLW9tYWUnLCAnPG91dGZpbGUubWFlPic=

> <r_lp_tautomer_probability>
0.999999

> <r_epik_Ionization_Penalty>
0.408423

> <r_epik_Ionization_Penalty_Charging>
0

> <r_epik_Ionization_Penalty_Neutral>
0.408423

> <r_epik_State_Penalty>
0.565879

> <r_epik_Charging_Adjusted_Penalty>
0.565879

> <i_epik_Tot_Q>
0

> <i_epik_Tot_abs_Q>
0

> <s_lp_Force_Field>
S-OPLS

> <r_lp_Energy>
59.1539

> <b_lp_Chiralities_Consistent>
1

> <s_lp_Variant>
ligprep_h3d.sdf:1575-2

> <ROCS_ShapeQuery>
_7L13

> <ROCS_TanimotoCombo>
0.810 

> <ROCS_ShapeTanimoto>
0.702 

> <ROCS_ColorTanimoto>
0.108 

> <ROCS_RefTversky>
0.805 

> <ROCS_RefColorTversky>
0.225 

> <ROCS_RefTverskyCombo>
1.030 

> <ROCS_FitTversky>
0.845 

> <ROCS_FitColorTversky>
0.173 

> <ROCS_FitTverskyCombo>
1.018 

> <ROCS_ColorScore>
-2.055

> <ROCS_Overlap>
1333.835

> <ROCS_Rank>
165                 

$$$$
ligprep_h3d.sdf:1096_1946
  -OEChem-08212117123D

 61 66  0     0  0  0  0  0  0999 V2000
  -20.6519   -3.9940  -32.4719 C   0  0  0  0  0  0  0  0  0  0  0  0
  -19.9681   -6.2115  -31.7995 C   0  0  0  0  0  0  0  0  0  0  0  0
  -20.1064   -4.2095  -33.7374 C   0  0  0  0  0  0  0  0  0  0  0  0
  -19.4226   -6.4271  -33.0650 C   0  0  0  0  0  0  0  0  0  0  0  0
  -16.5997   -4.7295  -26.6062 C   0  0  0  0  0  0  0  0  0  0  0  0
  -23.0627   -4.2747  -28.7972 C   0  0  0  0  0  0  0  0  0  0  0  0
  -20.7186   -4.4439  -25.3698 C   0  0  0  0  0  0  0  0  0  0  0  0
  -17.0144   -6.0699  -26.4919 C   0  0  0  0  0  0  0  0  0  0  0  0
  -20.9144   -4.6108  -27.7737 C   0  0  0  0  0  0  0  0  0  0  0  0
  -20.5827   -4.9950  -31.5029 C   0  0  0  0  0  0  0  0  0  0  0  0
  -21.1510   -4.7704  -30.1841 C   0  0  0  0  0  0  0  0  0  0  0  0
  -19.4918   -5.4260  -34.0340 C   0  0  0  0  0  0  0  0  0  0  0  0
  -22.5066   -4.4924  -30.0602 C   0  0  0  0  0  0  0  0  0  0  0  0
  -20.3548   -4.8298  -29.0439 C   0  0  0  0  0  0  0  0  0  0  0  0
  -22.2901   -4.3283  -27.6403 C   0  0  0  0  0  0  0  0  0  0  0  0
  -20.1361   -4.6647  -26.6095 C   0  0  0  0  0  0  0  0  0  0  0  0
  -22.0719   -4.1746  -25.3395 C   0  0  0  0  0  0  0  0  0  0  0  0
  -17.7695   -4.0122  -26.6666 C   0  0  0  0  0  0  0  0  0  0  0  0
  -19.4731   -6.8673  -36.1021 C   0  0  0  0  0  0  0  0  0  0  0  0
  -22.7444   -3.9354  -24.0740 C   0  0  0  0  0  0  0  0  0  0  0  0
  -26.3793   -4.3998  -22.8191 C   0  0  0  0  0  0  0  0  0  0  0  0
  -25.4470   -5.2736  -22.0343 C   0  0  0  0  0  0  0  0  0  0  0  0
  -24.9043   -4.1049  -22.8104 C   0  0  0  0  0  0  0  0  0  0  0  0
  -23.4069   -4.4155  -31.2523 C   0  0  0  0  0  0  0  0  0  0  0  0
  -18.8983   -5.1351  -29.2560 C   0  0  0  0  0  0  0  0  0  0  0  0
  -17.9991   -2.5593  -26.7900 C   0  0  0  0  0  0  0  0  0  0  0  0
  -18.9083   -5.6564  -35.3870 C   0  0  0  0  0  0  0  0  0  0  0  0
  -20.0434   -6.8031  -37.3203 N   0  5  0  0  0  0  0  0  0  0  0  0
  -18.3438   -6.1992  -26.4800 N   0  0  0  0  0  0  0  0  0  0  0  0
  -22.8581   -4.1135  -26.4386 N   0  0  0  0  0  0  0  0  0  0  0  0
  -19.4515   -8.1078  -35.5786 N   0  0  0  0  0  0  0  0  0  0  0  0
  -20.4023   -8.0861  -37.5766 N   0  0  0  0  0  0  0  0  0  0  0  0
  -20.0468   -8.8700  -36.5302 N   0  0  0  0  0  0  0  0  0  0  0  0
  -18.7745   -4.9307  -26.5875 N   0  0  0  0  0  0  0  0  0  0  0  0
  -24.0939   -4.3002  -23.9910 N   0  0  0  0  0  0  0  0  0  0  0  0
  -22.1365   -3.4093  -23.1239 O   0  0  0  0  0  0  0  0  0  0  0  0
  -21.1272   -3.0401  -32.2558 H   0  0  0  0  0  0  0  0  0  0  0  0
  -19.9068   -7.0018  -31.0550 H   0  0  0  0  0  0  0  0  0  0  0  0
  -20.1639   -3.4236  -34.4858 H   0  0  0  0  0  0  0  0  0  0  0  0
  -18.9461   -7.3782  -33.2877 H   0  0  0  0  0  0  0  0  0  0  0  0
  -15.5927   -4.3401  -26.6396 H   0  0  0  0  0  0  0  0  0  0  0  0
  -24.1272   -4.0578  -28.7150 H   0  0  0  0  0  0  0  0  0  0  0  0
  -20.1383   -4.4798  -24.4519 H   0  0  0  0  0  0  0  0  0  0  0  0
  -16.4032   -6.9579  -26.4166 H   0  0  0  0  0  0  0  0  0  0  0  0
  -26.8182   -4.8130  -23.7190 H   0  0  0  0  0  0  0  0  0  0  0  0
  -27.0301   -3.7323  -22.2677 H   0  0  0  0  0  0  0  0  0  0  0  0
  -25.4698   -5.1947  -20.9543 H   0  0  0  0  0  0  0  0  0  0  0  0
  -25.2603   -6.2731  -22.4076 H   0  0  0  0  0  0  0  0  0  0  0  0
  -24.5837   -3.2445  -22.2329 H   0  0  0  0  0  0  0  0  0  0  0  0
  -23.4350   -3.3910  -31.6387 H   0  0  0  0  0  0  0  0  0  0  0  0
  -23.0618   -5.0829  -32.0504 H   0  0  0  0  0  0  0  0  0  0  0  0
  -24.4275   -4.7226  -30.9956 H   0  0  0  0  0  0  0  0  0  0  0  0
  -18.7378   -6.2155  -29.2222 H   0  0  0  0  0  0  0  0  0  0  0  0
  -18.5601   -4.7535  -30.2233 H   0  0  0  0  0  0  0  0  0  0  0  0
  -18.2871   -4.6585  -28.4844 H   0  0  0  0  0  0  0  0  0  0  0  0
  -18.0614   -2.2553  -27.8477 H   0  0  0  0  0  0  0  0  0  0  0  0
  -18.9338   -2.2446  -26.2952 H   0  0  0  0  0  0  0  0  0  0  0  0
  -17.1925   -1.9715  -26.3192 H   0  0  0  0  0  0  0  0  0  0  0  0
  -19.0496   -4.7667  -36.0258 H   0  0  0  0  0  0  0  0  0  0  0  0
  -17.8108   -5.7599  -35.3228 H   0  0  0  0  0  0  0  0  0  0  0  0
  -24.5592   -4.6673  -24.8147 H   0  0  0  0  0  0  0  0  0  0  0  0
  1  3  1  0  0  0  0
  1 10  2  0  0  0  0
  2  4  2  0  0  0  0
  2 10  1  0  0  0  0
  3 12  2  0  0  0  0
  4 12  1  0  0  0  0
  5  8  1  0  0  0  0
  5 18  2  0  0  0  0
  6 13  2  0  0  0  0
  6 15  1  0  0  0  0
  7 16  1  0  0  0  0
  7 17  2  0  0  0  0
  8 29  2  0  0  0  0
  9 14  1  0  0  0  0
  9 15  1  0  0  0  0
  9 16  2  0  0  0  0
 10 11  1  0  0  0  0
 11 13  1  0  0  0  0
 11 14  2  0  0  0  0
 12 27  1  0  0  0  0
 13 24  1  0  0  0  0
 14 25  1  0  0  0  0
 15 30  2  0  0  0  0
 16 34  1  0  0  0  0
 17 20  1  0  0  0  0
 17 30  1  0  0  0  0
 18 26  1  0  0  0  0
 18 34  1  0  0  0  0
 19 27  1  0  0  0  0
 19 28  1  0  0  0  0
 19 31  2  0  0  0  0
 20 35  1  0  0  0  0
 20 36  2  0  0  0  0
 21 22  1  0  0  0  0
 21 23  1  0  0  0  0
 22 23  1  0  0  0  0
 23 35  1  0  0  0  0
 28 32  1  0  0  0  0
 29 34  1  0  0  0  0
 31 33  1  0  0  0  0
 32 33  2  0  0  0  0
  1 37  1  0  0  0  0
  2 38  1  0  0  0  0
  3 39  1  0  0  0  0
  4 40  1  0  0  0  0
  5 41  1  0  0  0  0
  6 42  1  0  0  0  0
  7 43  1  0  0  0  0
  8 44  1  0  0  0  0
 21 45  1  0  0  0  0
 21 46  1  0  0  0  0
 22 47  1  0  0  0  0
 22 48  1  0  0  0  0
 23 49  1  0  0  0  0
 24 50  1  0  0  0  0
 24 51  1  0  0  0  0
 24 52  1  0  0  0  0
 25 53  1  0  0  0  0
 25 54  1  0  0  0  0
 25 55  1  0  0  0  0
 26 56  1  0  0  0  0
 26 57  1  0  0  0  0
 26 58  1  0  0  0  0
 27 59  1  0  0  0  0
 27 60  1  0  0  0  0
 35 61  1  0  0  0  0
M  CHG  1  28  -1
M  END
> <SMILES>
Cc1cc2nc(cc(c2c(c1-c1ccc(cc1)Cc1nnn[nH]1)C)-n1nccc1C)C(=O)NC1CC1

> <FORMATTED_ID>
H3D-006794

> <MOLFORMULA>
C27H26N8O

> <Exact Mass>
478.22

> <XLogP>
4.93

> <TPSA_NOPS>
114.3

> <s_m_source_file>
ligprep_h3d.sdf

> <i_m_source_file_index>
1096

> <i_lp_mmshare_version>
55123

> <i_f3d_flags>
0

> <s_epik_input>
W0NIMl0xW0NIMl1bQ0hdMVtOSF1DKD1PKWMobjIpW2NIXWMoLW4zbltjSF1bY0hdYzNbQ0gzXSljKGMyNCljKFtDSDNdKWMoYyhbQ0gzXSlbY0hdNCktYzVbY0hdW2NIXWMoW2NIXVtjSF01KVtDSDJdYzZubm5bbkhdNg==

> <s_epik_cmdline>
J2VwaWtfcHl0aG9uJywgJy1waHQnLCAnMC41JywgJy1waCcsICc3LjUnLCAnLXRuJywgJzgnLCAnLW1hJywgJzUwMCcsICctaW1hZScsICc8aW5maWxlLm1hZT4nLCAnLW9tYWUnLCAnPG91dGZpbGUubWFlPic=

> <r_lp_tautomer_probability>
1

> <r_epik_Ionization_Penalty>
0.00108133

> <r_epik_Ionization_Penalty_Charging>
0.00106004

> <r_epik_Ionization_Penalty_Neutral>
2.12902e-05

> <r_epik_State_Penalty>
-0

> <r_epik_Charging_Adjusted_Penalty>
0.00106004

> <i_epik_Tot_Q>
-1

> <i_epik_Tot_abs_Q>
1

> <s_lp_Force_Field>
S-OPLS

> <r_lp_Energy>
57.217

> <b_lp_Chiralities_Consistent>
1

> <s_lp_Variant>
ligprep_h3d.sdf:1096-1

> <ROCS_ShapeQuery>
_7L13

> <ROCS_TanimotoCombo>
0.755 

> <ROCS_ShapeTanimoto>
0.663 

> <ROCS_ColorTanimoto>
0.092 

> <ROCS_RefTversky>
0.805 

> <ROCS_RefColorTversky>
0.217 

> <ROCS_RefTverskyCombo>
1.023 

> <ROCS_FitTversky>
0.789 

> <ROCS_FitColorTversky>
0.137 

> <ROCS_FitTverskyCombo>
0.927 

> <ROCS_ColorScore>
-2.021

> <ROCS_Overlap>
1338.772

> <ROCS_Rank>
166                 

$$$$
ligprep_h3d.sdf:5349_1887
  -OEChem-08212117123D

 70 75  0     0  0  0  0  0  0999 V2000
  -19.1445   -7.0902  -35.4137 C   0  0  0  0  0  0  0  0  0  0  0  0
  -20.2325   -7.8319  -34.9537 C   0  0  0  0  0  0  0  0  0  0  0  0
  -18.9131   -5.8084  -34.9146 C   0  0  0  0  0  0  0  0  0  0  0  0
  -21.0893   -7.2917  -33.9947 C   0  0  0  0  0  0  0  0  0  0  0  0
  -19.7699   -5.2682  -33.9556 C   0  0  0  0  0  0  0  0  0  0  0  0
  -23.1567   -3.8660  -28.7117 C   0  0  0  0  0  0  0  0  0  0  0  0
  -20.5480   -4.7381  -29.3167 C   0  0  0  0  0  0  0  0  0  0  0  0
  -15.1090   -6.9343  -26.5482 C   0  0  0  0  0  0  0  0  0  0  0  0
  -14.4859   -5.9191  -25.8708 C   0  0  0  0  0  0  0  0  0  0  0  0
  -22.2567   -4.1834  -27.7015 C   0  0  0  0  0  0  0  0  0  0  0  0
  -20.8580   -6.0099  -33.4956 C   0  0  0  0  0  0  0  0  0  0  0  0
  -20.9572   -4.6158  -27.9936 C   0  0  0  0  0  0  0  0  0  0  0  0
  -22.7417   -3.9806  -30.0377 C   0  0  0  0  0  0  0  0  0  0  0  0
  -21.4455   -4.4153  -30.3384 C   0  0  0  0  0  0  0  0  0  0  0  0
  -16.6063   -5.3524  -26.1302 C   0  0  0  0  0  0  0  0  0  0  0  0
  -17.9393   -4.6920  -26.1394 C   0  0  0  0  0  0  0  0  0  0  0  0
  -18.6624   -6.6770  -27.3370 C   0  0  0  0  0  0  0  0  0  0  0  0
  -17.4452   -7.2526  -27.3142 C   0  0  0  0  0  0  0  0  0  0  0  0
  -18.9478   -5.3599  -26.7409 C   0  0  0  0  0  0  0  0  0  0  0  0
  -25.7357   -4.4513  -21.8657 C   0  0  0  0  0  0  0  0  0  0  0  0
  -23.7721   -5.3617  -24.3244 C   0  0  0  0  0  0  0  0  0  0  0  0
  -23.3580   -2.8705  -24.2038 C   0  0  0  0  0  0  0  0  0  0  0  0
  -23.4223   -5.3494  -25.8154 C   0  0  0  0  0  0  0  0  0  0  0  0
  -23.0482   -2.8437  -25.7015 C   0  0  0  0  0  0  0  0  0  0  0  0
  -21.0264   -4.4231  -25.6953 C   0  0  0  0  0  0  0  0  0  0  0  0
  -24.3187   -4.0099  -23.8638 C   0  0  0  0  0  0  0  0  0  0  0  0
  -22.4845   -4.1859  -26.2078 C   0  0  0  0  0  0  0  0  0  0  0  0
  -25.7472   -4.3996  -20.3739 C   0  0  0  0  0  0  0  0  0  0  0  0
  -23.6209   -2.3219  -31.4977 C   0  0  0  0  0  0  0  0  0  0  0  0
  -21.7794   -5.4281  -32.4641 C   0  0  0  0  0  0  0  0  0  0  0  0
  -16.4278   -6.5597  -26.6982 N   0  0  0  0  0  0  0  0  0  0  0  0
  -15.4356   -4.9549  -25.6252 N   0  3  0  0  0  0  0  0  0  0  0  0
  -20.2143   -4.8847  -26.8277 N   0  0  0  0  0  0  0  0  0  0  0  0
  -24.5458   -4.0375  -22.4349 N   0  0  0  0  0  0  0  0  0  0  0  0
  -26.7319   -4.8396  -22.4645 O   0  0  0  0  0  0  0  0  0  0  0  0
  -23.6140   -3.6719  -31.0386 O   0  0  0  0  0  0  0  0  0  0  0  0
  -21.0438   -4.5301  -31.6366 O   0  0  0  0  0  0  0  0  0  0  0  0
  -18.4767   -7.5115  -36.1595 H   0  0  0  0  0  0  0  0  0  0  0  0
  -20.4122   -8.8304  -35.3414 H   0  0  0  0  0  0  0  0  0  0  0  0
  -18.0654   -5.2311  -35.2718 H   0  0  0  0  0  0  0  0  0  0  0  0
  -21.9347   -7.8768  -33.6422 H   0  0  0  0  0  0  0  0  0  0  0  0
  -19.5819   -4.2687  -33.5725 H   0  0  0  0  0  0  0  0  0  0  0  0
  -24.1668   -3.5453  -28.4773 H   0  0  0  0  0  0  0  0  0  0  0  0
  -19.5466   -5.0726  -29.5694 H   0  0  0  0  0  0  0  0  0  0  0  0
  -14.7929   -7.8794  -26.9474 H   0  0  0  0  0  0  0  0  0  0  0  0
  -13.4903   -5.7336  -25.5194 H   0  0  0  0  0  0  0  0  0  0  0  0
  -18.0600   -3.7205  -25.6764 H   0  0  0  0  0  0  0  0  0  0  0  0
  -19.4851   -7.2001  -27.8164 H   0  0  0  0  0  0  0  0  0  0  0  0
  -17.2253   -8.2189  -27.7490 H   0  0  0  0  0  0  0  0  0  0  0  0
  -24.5158   -6.1473  -24.1422 H   0  0  0  0  0  0  0  0  0  0  0  0
  -22.8846   -5.6278  -23.7379 H   0  0  0  0  0  0  0  0  0  0  0  0
  -22.4258   -2.9767  -23.6351 H   0  0  0  0  0  0  0  0  0  0  0  0
  -23.7998   -1.9086  -23.9160 H   0  0  0  0  0  0  0  0  0  0  0  0
  -22.9772   -6.3152  -26.0881 H   0  0  0  0  0  0  0  0  0  0  0  0
  -24.3589   -5.2767  -26.3853 H   0  0  0  0  0  0  0  0  0  0  0  0
  -23.9738   -2.5971  -26.2385 H   0  0  0  0  0  0  0  0  0  0  0  0
  -22.3495   -2.0247  -25.9153 H   0  0  0  0  0  0  0  0  0  0  0  0
  -20.5881   -3.4893  -25.3185 H   0  0  0  0  0  0  0  0  0  0  0  0
  -20.9877   -5.1489  -24.8755 H   0  0  0  0  0  0  0  0  0  0  0  0
  -25.2838   -3.8271  -24.3225 H   0  0  0  0  0  0  0  0  0  0  0  0
  -26.1000   -3.4291  -19.9895 H   0  0  0  0  0  0  0  0  0  0  0  0
  -26.4221   -5.1503  -19.9324 H   0  0  0  0  0  0  0  0  0  0  0  0
  -24.7720   -4.5661  -19.8890 H   0  0  0  0  0  0  0  0  0  0  0  0
  -24.3598   -2.2113  -32.2951 H   0  0  0  0  0  0  0  0  0  0  0  0
  -22.6273   -2.0569  -31.8678 H   0  0  0  0  0  0  0  0  0  0  0  0
  -23.8849   -1.6649  -30.6657 H   0  0  0  0  0  0  0  0  0  0  0  0
  -22.6036   -4.8837  -32.9374 H   0  0  0  0  0  0  0  0  0  0  0  0
  -22.2120   -6.2182  -31.8409 H   0  0  0  0  0  0  0  0  0  0  0  0
  -15.2721   -4.0785  -25.1372 H   0  0  0  0  0  0  0  0  0  0  0  0
  -23.7942   -3.7382  -21.8202 H   0  0  0  0  0  0  0  0  0  0  0  0
  1  2  2  0  0  0  0
  1  3  1  0  0  0  0
  2  4  1  0  0  0  0
  3  5  2  0  0  0  0
  4 11  2  0  0  0  0
  5 11  1  0  0  0  0
  6 10  1  0  0  0  0
  6 13  2  0  0  0  0
  7 12  1  0  0  0  0
  7 14  2  0  0  0  0
  8  9  2  0  0  0  0
  8 31  1  0  0  0  0
  9 32  1  0  0  0  0
 10 12  2  0  0  0  0
 10 27  1  0  0  0  0
 11 30  1  0  0  0  0
 12 33  1  0  0  0  0
 13 14  1  0  0  0  0
 13 36  1  0  0  0  0
 14 37  1  0  0  0  0
 15 16  1  0  0  0  0
 15 31  1  0  0  0  0
 15 32  2  0  0  0  0
 16 19  2  0  0  0  0
 17 18  2  0  0  0  0
 17 19  1  0  0  0  0
 18 31  1  0  0  0  0
 19 33  1  0  0  0  0
 20 28  1  0  0  0  0
 20 34  1  0  0  0  0
 20 35  2  0  0  0  0
 21 23  1  0  0  0  0
 21 26  1  0  0  0  0
 22 24  1  0  0  0  0
 22 26  1  0  0  0  0
 23 27  1  0  0  0  0
 24 27  1  0  0  0  0
 25 27  1  0  0  0  0
 25 33  1  0  0  0  0
 26 34  1  0  0  0  0
 29 36  1  0  0  0  0
 30 37  1  0  0  0  0
  1 38  1  0  0  0  0
  2 39  1  0  0  0  0
  3 40  1  0  0  0  0
  4 41  1  0  0  0  0
  5 42  1  0  0  0  0
  6 43  1  0  0  0  0
  7 44  1  0  0  0  0
  8 45  1  0  0  0  0
  9 46  1  0  0  0  0
 16 47  1  0  0  0  0
 17 48  1  0  0  0  0
 18 49  1  0  0  0  0
 21 50  1  0  0  0  0
 21 51  1  0  0  0  0
 22 52  1  0  0  0  0
 22 53  1  0  0  0  0
 23 54  1  0  0  0  0
 23 55  1  0  0  0  0
 24 56  1  0  0  0  0
 24 57  1  0  0  0  0
 25 58  1  0  0  0  0
 25 59  1  0  0  0  0
 26 60  1  0  0  0  0
 28 61  1  0  0  0  0
 28 62  1  0  0  0  0
 28 63  1  0  0  0  0
 29 64  1  0  0  0  0
 29 65  1  0  0  0  0
 29 66  1  0  0  0  0
 30 67  1  0  0  0  0
 30 68  1  0  0  0  0
 32 69  1  0  0  0  0
 34 70  1  0  0  0  0
M  CHG  1  32   1
M  END
> <SMILES>
COc1cc2c(cc1OCc1ccccc1)N(CC12CCC(CC1)NC(=O)C)c1ccn2ccnc2c1

> <FORMATTED_ID>
H3D-014991

> <MOLFORMULA>
C30H32N4O3

> <Exact Mass>
496.25

> <XLogP>
6.74

> <TPSA_NOPS>
68.1

> <s_m_source_file>
ligprep_h3d.sdf

> <i_m_source_file_index>
5349

> <i_lp_mmshare_version>
55123

> <i_f3d_flags>
0

> <s_epik_input>
W2NIXTFbY0hdW2NIXVtjSF1bY0hdYzFbQ0gyXU9jKGMoW2NIXTIpT1tDSDNdKVtjSF1jKE4oW0NIMl0zKWMoW2NIXVtjSF00KVtjSF1jKG40NSluW2NIXVtjSF01KWMyW0NAXTM2W0NIMl1bQ0gyXVtDQEhdKFtDSDJdW0NIMl02KVtOSF1DKD1PKVtDSDNd

> <s_epik_cmdline>
J2VwaWtfcHl0aG9uJywgJy1waHQnLCAnMC41JywgJy1waCcsICc3LjUnLCAnLXRuJywgJzgnLCAnLW1hJywgJzUwMCcsICctaW1hZScsICc8aW5maWxlLm1hZT4nLCAnLW9tYWUnLCAnPG91dGZpbGUubWFlPic=

> <r_lp_tautomer_probability>
1

> <r_epik_Ionization_Penalty>
0.323983

> <r_epik_Ionization_Penalty_Charging>
0

> <r_epik_Ionization_Penalty_Neutral>
0.323983

> <r_epik_State_Penalty>
0.318695

> <r_epik_Charging_Adjusted_Penalty>
0.318695

> <i_epik_Tot_Q>
1

> <i_epik_Tot_abs_Q>
1

> <s_lp_Force_Field>
S-OPLS

> <r_lp_Energy>
72.5825

> <b_lp_Chiralities_Consistent>
1

> <s_lp_Variant>
ligprep_h3d.sdf:5349-1

> <ROCS_ShapeQuery>
_7L13

> <ROCS_TanimotoCombo>
0.823 

> <ROCS_ShapeTanimoto>
0.657 

> <ROCS_ColorTanimoto>
0.166 

> <ROCS_RefTversky>
0.805 

> <ROCS_RefColorTversky>
0.327 

> <ROCS_RefTverskyCombo>
1.132 

> <ROCS_FitTversky>
0.781 

> <ROCS_FitColorTversky>
0.252 

> <ROCS_FitTverskyCombo>
1.033 

> <ROCS_ColorScore>
-2.990

> <ROCS_Overlap>
1339.557

> <ROCS_Rank>
167                 

$$$$
ligprep_h3d.sdf:992_1807
  -OEChem-08212117123D

 57 62  0     1  0  0  0  0  0999 V2000
  -20.8459   -4.8422  -29.5833 C   0  0  0  0  0  0  0  0  0  0  0  0
  -21.7576   -4.1856  -30.4126 C   0  0  0  0  0  0  0  0  0  0  0  0
  -20.9624   -4.6806  -28.1817 C   0  0  0  0  0  0  0  0  0  0  0  0
  -21.9909   -3.9117  -27.5874 C   0  0  0  0  0  0  0  0  0  0  0  0
  -22.7362   -3.4112  -29.8291 C   0  0  0  0  0  0  0  0  0  0  0  0
  -22.8890   -3.2436  -28.4526 C   0  0  0  0  0  0  0  0  0  0  0  0
  -22.0042   -4.0542  -31.7920 C   0  0  0  0  0  0  0  0  0  0  0  0
  -18.9403   -3.3049  -26.3018 C   0  0  0  0  0  0  0  0  0  0  0  0
  -18.8480   -5.5878  -25.1698 C   0  0  0  0  0  0  0  0  0  0  0  0
  -16.8770   -4.3184  -25.9918 C   0  0  0  0  0  0  0  0  0  0  0  0
  -19.1014   -7.6352  -35.2587 C   0  0  0  0  0  0  0  0  0  0  0  0
  -19.9553   -5.3858  -27.3132 C   0  0  0  0  0  0  0  0  0  0  0  0
  -23.1906   -3.0603  -25.5826 C   0  0  0  0  0  0  0  0  0  0  0  0
  -20.4103   -5.7758  -35.1302 C   0  0  0  0  0  0  0  0  0  0  0  0
  -21.0646   -4.3866  -25.2848 C   0  0  2  0  0  0  0  0  0  0  0  0
  -20.6989   -6.6393  -33.9195 C   0  0  2  0  0  0  0  0  0  0  0  0
  -23.4587   -3.4985  -24.1399 C   0  0  1  0  0  0  0  0  0  0  0  0
  -21.0419   -3.4895  -24.0124 C   0  0  2  0  0  0  0  0  0  0  0  0
  -19.6896   -4.6221  -25.9923 C   0  0  2  0  0  0  0  0  0  0  0  0
  -24.2174   -4.8219  -24.0594 C   0  0  0  0  0  0  0  0  0  0  0  0
  -19.9846   -3.8246  -22.9680 C   0  0  0  0  0  0  0  0  0  0  0  0
  -20.7085   -5.8719  -32.6123 C   0  0  0  0  0  0  0  0  0  0  0  0
  -23.0492   -3.2611  -32.0468 N   0  0  0  0  0  0  0  0  0  0  0  0
  -17.6440   -3.4122  -26.5992 N   0  5  0  0  0  0  0  0  0  0  0  0
  -17.4949   -5.3259  -25.2532 N   0  0  0  0  0  0  0  0  0  0  0  0
  -19.6546   -7.6113  -33.9970 N   0  0  0  0  0  0  0  0  0  0  0  0
  -22.0915   -3.8153  -26.1973 N   0  0  3  0  0  0  0  0  0  0  0  0
  -19.5507   -2.2389  -26.3788 O   0  0  0  0  0  0  0  0  0  0  0  0
  -19.3070   -6.5492  -24.5570 O   0  0  0  0  0  0  0  0  0  0  0  0
  -15.6455   -4.3148  -26.0711 O   0  0  0  0  0  0  0  0  0  0  0  0
  -18.2782   -8.4335  -35.6834 O   0  0  0  0  0  0  0  0  0  0  0  0
  -23.5098   -2.8534  -30.8003 O   0  0  0  0  0  0  0  0  0  0  0  0
  -19.6331   -6.6126  -36.0043 O   0  0  0  0  0  0  0  0  0  0  0  0
  -22.2950   -3.5936  -23.3236 O   0  0  0  0  0  0  0  0  0  0  0  0
  -21.3424   -4.5996  -32.8211 O   0  0  0  0  0  0  0  0  0  0  0  0
  -23.8158   -2.3783  -28.0242 F   0  0  0  0  0  0  0  0  0  0  0  0
  -20.0569   -5.4562  -30.0076 H   0  0  0  0  0  0  0  0  0  0  0  0
  -20.3404   -6.3942  -27.1095 H   0  0  0  0  0  0  0  0  0  0  0  0
  -19.0167   -5.5180  -27.8675 H   0  0  0  0  0  0  0  0  0  0  0  0
  -24.0965   -3.2382  -26.1979 H   0  0  0  0  0  0  0  0  0  0  0  0
  -23.0713   -1.9655  -25.5810 H   0  0  0  0  0  0  0  0  0  0  0  0
  -21.3278   -5.4785  -35.6467 H   0  0  0  0  0  0  0  0  0  0  0  0
  -19.8202   -4.8821  -34.9006 H   0  0  0  0  0  0  0  0  0  0  0  0
  -21.4655   -5.3674  -24.9822 H   0  0  0  0  0  0  0  0  0  0  0  0
  -21.6453   -7.1766  -34.0491 H   0  0  0  0  0  0  0  0  0  0  0  0
  -24.1459   -2.7240  -23.6512 H   0  0  0  0  0  0  0  0  0  0  0  0
  -20.9034   -2.4268  -24.2811 H   0  0  0  0  0  0  0  0  0  0  0  0
  -23.6249   -5.6194  -24.5081 H   0  0  0  0  0  0  0  0  0  0  0  0
  -25.1644   -4.7419  -24.5932 H   0  0  0  0  0  0  0  0  0  0  0  0
  -24.4184   -5.0738  -23.0180 H   0  0  0  0  0  0  0  0  0  0  0  0
  -20.0764   -4.8679  -22.6658 H   0  0  0  0  0  0  0  0  0  0  0  0
  -20.1125   -3.1899  -22.0911 H   0  0  0  0  0  0  0  0  0  0  0  0
  -18.9886   -3.6621  -23.3802 H   0  0  0  0  0  0  0  0  0  0  0  0
  -19.6869   -5.7028  -32.2590 H   0  0  0  0  0  0  0  0  0  0  0  0
  -21.2656   -6.4220  -31.8481 H   0  0  0  0  0  0  0  0  0  0  0  0
  -16.8829   -5.9340  -24.7176 H   0  0  0  0  0  0  0  0  0  0  0  0
  -19.3601   -8.2038  -33.2270 H   0  0  0  0  0  0  0  0  0  0  0  0
  1  2  2  0  0  0  0
  1  3  1  0  0  0  0
  2  5  1  0  0  0  0
  2  7  1  0  0  0  0
  3  4  2  0  0  0  0
  3 12  1  0  0  0  0
  4  6  1  0  0  0  0
  4 27  1  0  0  0  0
  5  6  2  0  0  0  0
  5 32  1  0  0  0  0
  6 36  1  0  0  0  0
  7 23  2  0  0  0  0
  7 35  1  0  0  0  0
  8 19  1  0  0  0  0
  8 24  1  0  0  0  0
  8 28  2  0  0  0  0
  9 19  1  0  0  0  0
  9 25  1  0  0  0  0
  9 29  2  0  0  0  0
 10 24  1  0  0  0  0
 10 25  1  0  0  0  0
 10 30  2  0  0  0  0
 11 26  1  0  0  0  0
 11 31  2  0  0  0  0
 11 33  1  0  0  0  0
 12 19  1  0  0  0  0
 13 17  1  0  0  0  0
 13 27  1  0  0  0  0
 14 16  1  0  0  0  0
 14 33  1  0  0  0  0
 15 18  1  0  0  0  0
 15 19  1  0  0  0  0
 15 27  1  0  0  0  0
 16 22  1  0  0  0  0
 16 26  1  0  0  0  0
 17 20  1  0  0  0  0
 17 34  1  0  0  0  0
 18 21  1  0  0  0  0
 18 34  1  0  0  0  0
 22 35  1  0  0  0  0
 23 32  1  0  0  0  0
  1 37  1  0  0  0  0
 12 38  1  0  0  0  0
 12 39  1  0  0  0  0
 13 40  1  0  0  0  0
 13 41  1  0  0  0  0
 14 42  1  0  0  0  0
 14 43  1  0  0  0  0
 15 44  1  0  0  0  0
 16 45  1  0  0  0  0
 17 46  1  0  0  0  0
 18 47  1  0  0  0  0
 20 48  1  0  0  0  0
 20 49  1  0  0  0  0
 20 50  1  0  0  0  0
 21 51  1  0  0  0  0
 21 52  1  0  0  0  0
 21 53  1  0  0  0  0
 22 54  1  0  0  0  0
 22 55  1  0  0  0  0
 25 56  1  0  0  0  0
 26 57  1  0  0  0  0
M  CHG  1  24  -1
M  END
> <SMILES>
C[C@@H]1CN2[C@H]([C@H](C)O1)C1(Cc3cc4c(noc4c(c32)F)OC[C@H]2COC(=O)N2)C(=O)NC(=O)NC1=O

> <FORMATTED_ID>
H3D-006112

> <MOLFORMULA>
C22H22FN5O8

> <Exact Mass>
503.15

> <XLogP>
-0.35

> <TPSA_NOPS>
161.6

> <s_m_source_file>
ligprep_h3d.sdf

> <i_m_source_file_index>
992

> <i_lp_mmshare_version>
55123

> <i_f3d_flags>
0

> <s_epik_input>
Tz1DMVtOSF1DKD1PKVtOSF1DKD1PKUMxMltDQEBIXTNOKFtDSDJdW0NAQEhdKFtDSDNdKU9bQ0BIXTNbQ0gzXSljNGMoW0NIMl0yKVtjSF1jNWMoYzRGKW9uYzVPW0NIMl1bQ0BIXTZbQ0gyXU9DKD1PKVtOSF02

> <s_epik_cmdline>
J2VwaWtfcHl0aG9uJywgJy1waHQnLCAnMC41JywgJy1waCcsICc3LjUnLCAnLXRuJywgJzgnLCAnLW1hJywgJzUwMCcsICctaW1hZScsICc8aW5maWxlLm1hZT4nLCAnLW9tYWUnLCAnPG91dGZpbGUubWFlPic=

> <r_lp_tautomer_probability>
1

> <r_epik_Ionization_Penalty>
0.455392

> <r_epik_Ionization_Penalty_Charging>
0.455373

> <r_epik_Ionization_Penalty_Neutral>
1.8759e-05

> <r_epik_State_Penalty>
0.458483

> <r_epik_Charging_Adjusted_Penalty>
0.913857

> <i_epik_Tot_Q>
-1

> <i_epik_Tot_abs_Q>
1

> <s_epik_Chemistry_Notes>
This compound has an ester and may undergo hydrolysis at high or low pH.

> <s_lp_Force_Field>
S-OPLS

> <r_lp_Energy>
39.6184

> <b_lp_Chiralities_Consistent>
1

> <s_lp_Variant>
ligprep_h3d.sdf:992-2

> <ROCS_ShapeQuery>
_7L13

> <ROCS_TanimotoCombo>
0.770 

> <ROCS_ShapeTanimoto>
0.657 

> <ROCS_ColorTanimoto>
0.113 

> <ROCS_RefTversky>
0.805 

> <ROCS_RefColorTversky>
0.282 

> <ROCS_RefTverskyCombo>
1.086 

> <ROCS_FitTversky>
0.781 

> <ROCS_FitColorTversky>
0.159 

> <ROCS_FitTverskyCombo>
0.940 

> <ROCS_ColorScore>
-2.648

> <ROCS_Overlap>
1338.512

> <ROCS_Rank>
168                 

$$$$
ligprep_h3d.sdf:1323_1484
  -OEChem-08212117123D

 64 68  0     0  0  0  0  0  0999 V2000
  -20.1750   -3.8509  -32.2585 C   0  0  0  0  0  0  0  0  0  0  0  0
  -19.6466   -4.0294  -33.5416 C   0  0  0  0  0  0  0  0  0  0  0  0
  -17.0106   -6.2312  -26.6255 C   0  0  0  0  0  0  0  0  0  0  0  0
  -20.8094   -6.2039  -32.0972 C   0  0  0  0  0  0  0  0  0  0  0  0
  -23.1325   -4.0835  -28.7918 C   0  0  0  0  0  0  0  0  0  0  0  0
  -20.7617   -4.4960  -25.4037 C   0  0  0  0  0  0  0  0  0  0  0  0
  -16.7895   -4.8438  -26.7157 C   0  0  0  0  0  0  0  0  0  0  0  0
  -21.0002   -4.5936  -27.8076 C   0  0  0  0  0  0  0  0  0  0  0  0
  -20.7453   -4.9147  -31.5487 C   0  0  0  0  0  0  0  0  0  0  0  0
  -21.2790   -4.6808  -30.2172 C   0  0  0  0  0  0  0  0  0  0  0  0
  -22.6098   -4.3109  -30.0673 C   0  0  0  0  0  0  0  0  0  0  0  0
  -20.4742   -4.8223  -29.0904 C   0  0  0  0  0  0  0  0  0  0  0  0
  -20.2843   -6.3998  -33.3825 C   0  0  0  0  0  0  0  0  0  0  0  0
  -22.3505   -4.2179  -27.6479 C   0  0  0  0  0  0  0  0  0  0  0  0
  -20.2125   -4.7288  -26.6564 C   0  0  0  0  0  0  0  0  0  0  0  0
  -19.7283   -5.3193  -34.0513 C   0  0  0  0  0  0  0  0  0  0  0  0
  -22.0919   -4.1327  -25.3477 C   0  0  0  0  0  0  0  0  0  0  0  0
  -18.3776   -6.3595  -26.5910 C   0  0  0  0  0  0  0  0  0  0  0  0
  -19.6125   -7.0854  -35.2605 C   0  0  0  0  0  0  0  0  0  0  0  0
  -22.7292   -3.8758  -24.0676 C   0  0  0  0  0  0  0  0  0  0  0  0
  -23.5179   -4.1435  -31.2441 C   0  0  0  0  0  0  0  0  0  0  0  0
  -19.0458   -5.2246  -29.3304 C   0  0  0  0  0  0  0  0  0  0  0  0
  -19.2267   -7.5635  -26.5001 C   0  0  0  0  0  0  0  0  0  0  0  0
  -19.2530   -7.8400  -36.4710 C   0  0  0  0  0  0  0  0  0  0  0  0
  -27.8662   -4.6416  -23.6275 C   0  0  0  0  0  0  0  0  0  0  0  0
  -24.8789   -3.9215  -22.7763 C   0  0  0  0  0  0  0  0  0  0  0  0
  -25.5122   -5.1982  -22.2575 C   0  0  0  0  0  0  0  0  0  0  0  0
  -17.9251   -4.1410  -26.7373 N   0  0  0  0  0  0  0  0  0  0  0  0
  -22.8862   -3.9912  -26.4335 N   0  0  0  0  0  0  0  0  0  0  0  0
  -20.2025   -7.5228  -34.1698 N   0  0  0  0  0  0  0  0  0  0  0  0
  -18.8730   -5.0906  -26.6602 N   0  0  0  0  0  0  0  0  0  0  0  0
  -24.0999   -4.1463  -23.9727 N   0  0  0  0  0  0  0  0  0  0  0  0
  -22.0732   -3.4157  -23.1152 O   0  0  0  0  0  0  0  0  0  0  0  0
  -25.9446   -6.0627  -24.6862 O   0  0  0  0  0  0  0  0  0  0  0  0
  -27.2834   -7.0466  -22.7858 O   0  0  0  0  0  0  0  0  0  0  0  0
  -19.2926   -5.7611  -35.2677 O   0  0  0  0  0  0  0  0  0  0  0  0
  -26.6370   -5.9093  -23.4180 S   0  0  0  0  0  0  0  0  0  0  0  0
  -20.1322   -2.8573  -31.8154 H   0  0  0  0  0  0  0  0  0  0  0  0
  -19.2025   -3.2133  -34.0978 H   0  0  0  0  0  0  0  0  0  0  0  0
  -16.2793   -7.0255  -26.5910 H   0  0  0  0  0  0  0  0  0  0  0  0
  -21.2485   -7.0327  -31.5498 H   0  0  0  0  0  0  0  0  0  0  0  0
  -24.1778   -3.7941  -28.6893 H   0  0  0  0  0  0  0  0  0  0  0  0
  -20.1733   -4.5937  -24.4955 H   0  0  0  0  0  0  0  0  0  0  0  0
  -15.8481   -4.3158  -26.7668 H   0  0  0  0  0  0  0  0  0  0  0  0
  -23.4784   -3.1109  -31.6075 H   0  0  0  0  0  0  0  0  0  0  0  0
  -23.2314   -4.8151  -32.0616 H   0  0  0  0  0  0  0  0  0  0  0  0
  -24.5542   -4.3836  -30.9793 H   0  0  0  0  0  0  0  0  0  0  0  0
  -18.9618   -6.3142  -29.3227 H   0  0  0  0  0  0  0  0  0  0  0  0
  -18.6941   -4.8457  -30.2940 H   0  0  0  0  0  0  0  0  0  0  0  0
  -18.3923   -4.8101  -28.5577 H   0  0  0  0  0  0  0  0  0  0  0  0
  -19.4352   -7.8242  -25.4496 H   0  0  0  0  0  0  0  0  0  0  0  0
  -20.1955   -7.4261  -27.0099 H   0  0  0  0  0  0  0  0  0  0  0  0
  -18.7539   -8.4400  -26.9755 H   0  0  0  0  0  0  0  0  0  0  0  0
  -20.0725   -7.8278  -37.2109 H   0  0  0  0  0  0  0  0  0  0  0  0
  -18.3533   -7.4323  -36.9670 H   0  0  0  0  0  0  0  0  0  0  0  0
  -19.0212   -8.8983  -36.2513 H   0  0  0  0  0  0  0  0  0  0  0  0
  -28.6124   -4.9996  -24.3386 H   0  0  0  0  0  0  0  0  0  0  0  0
  -28.3258   -4.4440  -22.6580 H   0  0  0  0  0  0  0  0  0  0  0  0
  -27.3747   -3.7450  -24.0080 H   0  0  0  0  0  0  0  0  0  0  0  0
  -25.6342   -3.1650  -23.0113 H   0  0  0  0  0  0  0  0  0  0  0  0
  -24.1978   -3.5077  -22.0266 H   0  0  0  0  0  0  0  0  0  0  0  0
  -26.0937   -4.9947  -21.3533 H   0  0  0  0  0  0  0  0  0  0  0  0
  -24.7615   -5.9611  -22.0303 H   0  0  0  0  0  0  0  0  0  0  0  0
  -24.6008   -4.4608  -24.7973 H   0  0  0  0  0  0  0  0  0  0  0  0
  1  2  1  0  0  0  0
  1  9  2  0  0  0  0
  2 16  2  0  0  0  0
  3  7  1  0  0  0  0
  3 18  2  0  0  0  0
  4  9  1  0  0  0  0
  4 13  2  0  0  0  0
  5 11  1  0  0  0  0
  5 14  2  0  0  0  0
  6 15  2  0  0  0  0
  6 17  1  0  0  0  0
  7 28  2  0  0  0  0
  8 12  2  0  0  0  0
  8 14  1  0  0  0  0
  8 15  1  0  0  0  0
  9 10  1  0  0  0  0
 10 11  2  0  0  0  0
 10 12  1  0  0  0  0
 11 21  1  0  0  0  0
 12 22  1  0  0  0  0
 13 16  1  0  0  0  0
 13 30  1  0  0  0  0
 14 29  1  0  0  0  0
 15 31  1  0  0  0  0
 16 36  1  0  0  0  0
 17 20  1  0  0  0  0
 17 29  2  0  0  0  0
 18 23  1  0  0  0  0
 18 31  1  0  0  0  0
 19 24  1  0  0  0  0
 19 30  2  0  0  0  0
 19 36  1  0  0  0  0
 20 32  1  0  0  0  0
 20 33  2  0  0  0  0
 25 37  1  0  0  0  0
 26 27  1  0  0  0  0
 26 32  1  0  0  0  0
 27 37  1  0  0  0  0
 28 31  1  0  0  0  0
 34 37  2  0  0  0  0
 35 37  2  0  0  0  0
  1 38  1  0  0  0  0
  2 39  1  0  0  0  0
  3 40  1  0  0  0  0
  4 41  1  0  0  0  0
  5 42  1  0  0  0  0
  6 43  1  0  0  0  0
  7 44  1  0  0  0  0
 21 45  1  0  0  0  0
 21 46  1  0  0  0  0
 21 47  1  0  0  0  0
 22 48  1  0  0  0  0
 22 49  1  0  0  0  0
 22 50  1  0  0  0  0
 23 51  1  0  0  0  0
 23 52  1  0  0  0  0
 23 53  1  0  0  0  0
 24 54  1  0  0  0  0
 24 55  1  0  0  0  0
 24 56  1  0  0  0  0
 25 57  1  0  0  0  0
 25 58  1  0  0  0  0
 25 59  1  0  0  0  0
 26 60  1  0  0  0  0
 26 61  1  0  0  0  0
 27 62  1  0  0  0  0
 27 63  1  0  0  0  0
 32 64  1  0  0  0  0
M  END
> <SMILES>
Cc1nc2cc(ccc2o1)-c1c(cc2nc(cc(c2c1C)-n1nccc1C)C(=O)NCCS(=O)(=O)C)C

> <FORMATTED_ID>
H3D-008996

> <MOLFORMULA>
C27H27N5O4S

> <Exact Mass>
517.18

> <XLogP>
4.29

> <TPSA_NOPS>
128.7

> <s_m_source_file>
ligprep_h3d.sdf

> <i_m_source_file_index>
1323

> <i_lp_mmshare_version>
55123

> <i_f3d_flags>
0

> <s_epik_input>
W0NIM11jKG4xKW9jKGMxMilbY0hdW2NIXWMoW2NIXTIpLWMoYyhbY0hdMylbQ0gzXSljKFtDSDNdKWMoYzM0KWMoLW41bltjSF1bY0hdYzVbQ0gzXSlbY0hdYyhuNClDKD1PKVtOSF1bQ0gyXVtDSDJdUyg9TykoPU8pW0NIM10=

> <s_epik_cmdline>
J2VwaWtfcHl0aG9uJywgJy1waHQnLCAnMC41JywgJy1waCcsICc3LjUnLCAnLXRuJywgJzgnLCAnLW1hJywgJzUwMCcsICctaW1hZScsICc8aW5maWxlLm1hZT4nLCAnLW9tYWUnLCAnPG91dGZpbGUubWFlPic=

> <r_lp_tautomer_probability>
1

> <r_epik_Ionization_Penalty>
2.16712e-05

> <r_epik_Ionization_Penalty_Charging>
0

> <r_epik_Ionization_Penalty_Neutral>
2.16712e-05

> <r_epik_State_Penalty>
-0

> <r_epik_Charging_Adjusted_Penalty>
0

> <i_epik_Tot_Q>
0

> <i_epik_Tot_abs_Q>
0

> <s_lp_Force_Field>
S-OPLS

> <r_lp_Energy>
38.8054

> <b_lp_Chiralities_Consistent>
1

> <s_lp_Variant>
ligprep_h3d.sdf:1323-1

> <ROCS_ShapeQuery>
_7L13

> <ROCS_TanimotoCombo>
0.762 

> <ROCS_ShapeTanimoto>
0.655 

> <ROCS_ColorTanimoto>
0.107 

> <ROCS_RefTversky>
0.805 

> <ROCS_RefColorTversky>
0.221 

> <ROCS_RefTverskyCombo>
1.026 

> <ROCS_FitTversky>
0.779 

> <ROCS_FitColorTversky>
0.171 

> <ROCS_FitTverskyCombo>
0.949 

> <ROCS_ColorScore>
-2.027

> <ROCS_Overlap>
1338.509

> <ROCS_Rank>
169                 

$$$$
ligprep_h3d.sdf:1580_1644
  -OEChem-08212117123D

 64 68  0     0  0  0  0  0  0999 V2000
  -23.3684   -3.9705  -22.0938 C   0  0  0  0  0  0  0  0  0  0  0  0
  -23.1152   -3.8670  -23.4616 C   0  0  0  0  0  0  0  0  0  0  0  0
  -24.6398   -4.3281  -21.6450 C   0  0  0  0  0  0  0  0  0  0  0  0
  -22.7502   -3.0928  -30.4861 C   0  0  0  0  0  0  0  0  0  0  0  0
  -21.0330   -4.7303  -30.8788 C   0  0  0  0  0  0  0  0  0  0  0  0
  -25.4048   -4.4785  -23.9317 C   0  0  0  0  0  0  0  0  0  0  0  0
  -20.5028   -4.5968  -28.0086 C   0  0  0  0  0  0  0  0  0  0  0  0
  -22.8322   -2.9284  -31.8594 C   0  0  0  0  0  0  0  0  0  0  0  0
  -21.8309   -4.0128  -29.9945 C   0  0  0  0  0  0  0  0  0  0  0  0
  -24.1334   -4.1209  -24.3805 C   0  0  0  0  0  0  0  0  0  0  0  0
  -25.6580   -4.5821  -22.5639 C   0  0  0  0  0  0  0  0  0  0  0  0
  -21.7053   -4.2209  -28.5718 C   0  0  0  0  0  0  0  0  0  0  0  0
  -20.5115   -4.7638  -26.6388 C   0  0  0  0  0  0  0  0  0  0  0  0
  -21.1921   -4.4928  -32.2346 C   0  0  0  0  0  0  0  0  0  0  0  0
  -22.7150   -4.2156  -26.5352 C   0  0  0  0  0  0  0  0  0  0  0  0
  -19.8082   -7.4374  -35.4256 C   0  0  0  0  0  0  0  0  0  0  0  0
  -19.7744   -6.5058  -36.6049 C   0  0  0  0  0  0  0  0  0  0  0  0
  -18.6711   -6.4080  -26.4102 C   0  0  0  0  0  0  0  0  0  0  0  0
  -19.0652   -4.6991  -24.6515 C   0  0  0  0  0  0  0  0  0  0  0  0
  -17.1870   -6.3925  -26.0352 C   0  0  0  0  0  0  0  0  0  0  0  0
  -17.5685   -4.7379  -24.3343 C   0  0  0  0  0  0  0  0  0  0  0  0
  -19.4756   -5.9846  -35.2266 C   0  0  0  0  0  0  0  0  0  0  0  0
  -15.5872   -6.1050  -24.2582 C   0  0  0  0  0  0  0  0  0  0  0  0
  -27.0876   -5.0186  -20.7142 C   0  0  0  0  0  0  0  0  0  0  0  0
  -20.4419   -5.0799  -34.5407 C   0  0  0  0  0  0  0  0  0  0  0  0
  -22.0742   -3.6071  -32.7495 N   0  0  0  0  0  0  0  0  0  0  0  0
  -22.8353   -4.0208  -27.8623 N   0  0  0  0  0  0  0  0  0  0  0  0
  -21.6037   -4.5808  -25.8681 N   0  0  0  0  0  0  0  0  0  0  0  0
  -19.3115   -5.1456  -26.0285 N   0  0  0  0  0  0  0  0  0  0  0  0
  -17.0046   -6.0638  -24.6163 N   0  0  0  0  0  0  0  0  0  0  0  0
  -23.8782   -4.0152  -25.7606 N   0  0  0  0  0  0  0  0  0  0  0  0
  -20.3738   -5.2328  -33.1241 N   0  0  0  0  0  0  0  0  0  0  0  0
  -26.8984   -4.9311  -22.1257 O   0  0  0  0  0  0  0  0  0  0  0  0
  -22.5757   -3.7726  -21.3783 H   0  0  0  0  0  0  0  0  0  0  0  0
  -22.1212   -3.5862  -23.8003 H   0  0  0  0  0  0  0  0  0  0  0  0
  -24.8307   -4.4079  -20.5783 H   0  0  0  0  0  0  0  0  0  0  0  0
  -23.3894   -2.5137  -29.8273 H   0  0  0  0  0  0  0  0  0  0  0  0
  -20.3073   -5.4540  -30.5185 H   0  0  0  0  0  0  0  0  0  0  0  0
  -26.2020   -4.6773  -24.6443 H   0  0  0  0  0  0  0  0  0  0  0  0
  -19.6097   -4.7511  -28.6032 H   0  0  0  0  0  0  0  0  0  0  0  0
  -23.5323   -2.2221  -32.2935 H   0  0  0  0  0  0  0  0  0  0  0  0
  -20.7748   -7.7983  -35.0965 H   0  0  0  0  0  0  0  0  0  0  0  0
  -19.0039   -8.1563  -35.3280 H   0  0  0  0  0  0  0  0  0  0  0  0
  -18.9474   -6.5996  -37.2980 H   0  0  0  0  0  0  0  0  0  0  0  0
  -20.7185   -6.2428  -37.0659 H   0  0  0  0  0  0  0  0  0  0  0  0
  -18.7612   -6.5665  -27.4921 H   0  0  0  0  0  0  0  0  0  0  0  0
  -19.1732   -7.2461  -25.9087 H   0  0  0  0  0  0  0  0  0  0  0  0
  -19.6124   -5.3424  -23.9495 H   0  0  0  0  0  0  0  0  0  0  0  0
  -19.4298   -3.6734  -24.5158 H   0  0  0  0  0  0  0  0  0  0  0  0
  -16.7747   -7.3879  -26.2415 H   0  0  0  0  0  0  0  0  0  0  0  0
  -16.6510   -5.6812  -26.6781 H   0  0  0  0  0  0  0  0  0  0  0  0
  -17.0490   -3.9570  -24.9061 H   0  0  0  0  0  0  0  0  0  0  0  0
  -17.4406   -4.4989  -23.2714 H   0  0  0  0  0  0  0  0  0  0  0  0
  -18.4477   -5.7315  -34.9965 H   0  0  0  0  0  0  0  0  0  0  0  0
  -15.4703   -5.8565  -23.1930 H   0  0  0  0  0  0  0  0  0  0  0  0
  -15.1912   -7.1142  -24.4447 H   0  0  0  0  0  0  0  0  0  0  0  0
  -15.0339   -5.3755  -24.8677 H   0  0  0  0  0  0  0  0  0  0  0  0
  -28.1204   -5.3053  -20.5013 H   0  0  0  0  0  0  0  0  0  0  0  0
  -26.8645   -4.0521  -20.2552 H   0  0  0  0  0  0  0  0  0  0  0  0
  -26.4111   -5.7759  -20.3111 H   0  0  0  0  0  0  0  0  0  0  0  0
  -20.2049   -4.0377  -34.8011 H   0  0  0  0  0  0  0  0  0  0  0  0
  -21.4607   -5.3198  -34.8792 H   0  0  0  0  0  0  0  0  0  0  0  0
  -24.6878   -3.7406  -26.3082 H   0  0  0  0  0  0  0  0  0  0  0  0
  -19.7347   -5.8805  -32.7105 H   0  0  0  0  0  0  0  0  0  0  0  0
  1  2  2  0  0  0  0
  1  3  1  0  0  0  0
  2 10  1  0  0  0  0
  3 11  2  0  0  0  0
  4  8  1  0  0  0  0
  4  9  2  0  0  0  0
  5  9  1  0  0  0  0
  5 14  2  0  0  0  0
  6 10  2  0  0  0  0
  6 11  1  0  0  0  0
  7 12  1  0  0  0  0
  7 13  2  0  0  0  0
  8 26  2  0  0  0  0
  9 12  1  0  0  0  0
 10 31  1  0  0  0  0
 11 33  1  0  0  0  0
 12 27  2  0  0  0  0
 13 28  1  0  0  0  0
 13 29  1  0  0  0  0
 14 26  1  0  0  0  0
 14 32  1  0  0  0  0
 15 27  1  0  0  0  0
 15 28  2  0  0  0  0
 15 31  1  0  0  0  0
 16 17  1  0  0  0  0
 16 22  1  0  0  0  0
 17 22  1  0  0  0  0
 18 20  1  0  0  0  0
 18 29  1  0  0  0  0
 19 21  1  0  0  0  0
 19 29  1  0  0  0  0
 20 30  1  0  0  0  0
 21 30  1  0  0  0  0
 22 25  1  0  0  0  0
 23 30  1  0  0  0  0
 24 33  1  0  0  0  0
 25 32  1  0  0  0  0
  1 34  1  0  0  0  0
  2 35  1  0  0  0  0
  3 36  1  0  0  0  0
  4 37  1  0  0  0  0
  5 38  1  0  0  0  0
  6 39  1  0  0  0  0
  7 40  1  0  0  0  0
  8 41  1  0  0  0  0
 16 42  1  0  0  0  0
 16 43  1  0  0  0  0
 17 44  1  0  0  0  0
 17 45  1  0  0  0  0
 18 46  1  0  0  0  0
 18 47  1  0  0  0  0
 19 48  1  0  0  0  0
 19 49  1  0  0  0  0
 20 50  1  0  0  0  0
 20 51  1  0  0  0  0
 21 52  1  0  0  0  0
 21 53  1  0  0  0  0
 22 54  1  0  0  0  0
 23 55  1  0  0  0  0
 23 56  1  0  0  0  0
 23 57  1  0  0  0  0
 24 58  1  0  0  0  0
 24 59  1  0  0  0  0
 24 60  1  0  0  0  0
 25 61  1  0  0  0  0
 25 62  1  0  0  0  0
 31 63  1  0  0  0  0
 32 64  1  0  0  0  0
M  END
> <SMILES>
COc1cccc(c1)Nc1nc(cc(n1)-c1ccnc(c1)NCC1CC1)N1CCN(C)CC1

> <FORMATTED_ID>
H3D-014945

> <MOLFORMULA>
C25H31N7O

> <Exact Mass>
445.26

> <XLogP>
3.07

> <TPSA_NOPS>
78.4

> <s_m_source_file>
ligprep_h3d.sdf

> <i_m_source_file_index>
1580

> <i_lp_mmshare_version>
55123

> <i_f3d_flags>
0

> <s_epik_input>
W0NIM11PYzFbY0hdW2NIXVtjSF1jKFtjSF0xKVtOSF1jMm5jKE4zW0NIMl1bQ0gyXU4oW0NIM10pW0NIMl1bQ0gyXTMpW2NIXWMobjIpLWM0W2NIXVtjSF1uYyhbY0hdNClbTkhdW0NIMl1bQ0hdNVtDSDJdW0NIMl01

> <s_epik_cmdline>
J2VwaWtfcHl0aG9uJywgJy1waHQnLCAnMC41JywgJy1waCcsICc3LjUnLCAnLXRuJywgJzgnLCAnLW1hJywgJzUwMCcsICctaW1hZScsICc8aW5maWxlLm1hZT4nLCAnLW9tYWUnLCAnPG91dGZpbGUubWFlPic=

> <r_lp_tautomer_probability>
0.999999

> <r_epik_Ionization_Penalty>
0.408423

> <r_epik_Ionization_Penalty_Charging>
0

> <r_epik_Ionization_Penalty_Neutral>
0.408423

> <r_epik_State_Penalty>
0.565879

> <r_epik_Charging_Adjusted_Penalty>
0.565879

> <i_epik_Tot_Q>
0

> <i_epik_Tot_abs_Q>
0

> <s_lp_Force_Field>
S-OPLS

> <r_lp_Energy>
63.4068

> <b_lp_Chiralities_Consistent>
1

> <s_lp_Variant>
ligprep_h3d.sdf:1580-2

> <ROCS_ShapeQuery>
_7L13

> <ROCS_TanimotoCombo>
0.888 

> <ROCS_ShapeTanimoto>
0.723 

> <ROCS_ColorTanimoto>
0.165 

> <ROCS_RefTversky>
0.805 

> <ROCS_RefColorTversky>
0.311 

> <ROCS_RefTverskyCombo>
1.116 

> <ROCS_FitTversky>
0.877 

> <ROCS_FitColorTversky>
0.260 

> <ROCS_FitTverskyCombo>
1.137 

> <ROCS_ColorScore>
-2.834

> <ROCS_Overlap>
1329.907

> <ROCS_Rank>
170                 

$$$$
ligprep_h3d.sdf:2207_1203
  -OEChem-08212117123D

 76 81  0     0  0  0  0  0  0999 V2000
  -16.8385   -7.1439  -36.9548 C   0  0  0  0  0  0  0  0  0  0  0  0
  -21.1579   -6.1135  -24.2061 C   0  0  0  0  0  0  0  0  0  0  0  0
  -16.1683   -5.2637  -28.5499 C   0  0  0  0  0  0  0  0  0  0  0  0
  -19.0677   -7.6793  -36.1038 C   0  0  0  0  0  0  0  0  0  0  0  0
  -17.9654   -5.6571  -35.3741 C   0  0  0  0  0  0  0  0  0  0  0  0
  -24.7076   -4.9923  -25.3462 C   0  0  0  0  0  0  0  0  0  0  0  0
  -23.3908   -4.1310  -23.5128 C   0  0  0  0  0  0  0  0  0  0  0  0
  -16.8315   -4.3065  -29.3107 C   0  0  0  0  0  0  0  0  0  0  0  0
  -20.1682   -7.3676  -35.3055 C   0  0  0  0  0  0  0  0  0  0  0  0
  -19.0659   -5.3453  -34.5758 C   0  0  0  0  0  0  0  0  0  0  0  0
  -25.8393   -4.9978  -24.5308 C   0  0  0  0  0  0  0  0  0  0  0  0
  -24.5225   -4.1364  -22.6974 C   0  0  0  0  0  0  0  0  0  0  0  0
  -16.8010   -5.8640  -27.4602 C   0  0  0  0  0  0  0  0  0  0  0  0
  -17.9663   -6.8241  -36.1381 C   0  0  0  0  0  0  0  0  0  0  0  0
  -23.4833   -4.5590  -24.8372 C   0  0  0  0  0  0  0  0  0  0  0  0
  -18.1477   -3.9295  -29.0164 C   0  0  0  0  0  0  0  0  0  0  0  0
  -20.1673   -6.2005  -34.5415 C   0  0  0  0  0  0  0  0  0  0  0  0
  -25.7468   -4.5698  -23.2065 C   0  0  0  0  0  0  0  0  0  0  0  0
  -18.1216   -5.4922  -27.1490 C   0  0  0  0  0  0  0  0  0  0  0  0
  -18.7905   -4.5510  -27.9336 C   0  0  0  0  0  0  0  0  0  0  0  0
  -20.0421   -5.2681  -26.2296 C   0  0  0  0  0  0  0  0  0  0  0  0
  -22.2739   -3.7489  -26.9230 C   0  0  0  0  0  0  0  0  0  0  0  0
  -21.1958   -5.2988  -25.3799 C   0  0  0  0  0  0  0  0  0  0  0  0
  -22.2819   -4.5532  -25.7024 C   0  0  0  0  0  0  0  0  0  0  0  0
  -21.2012   -3.7016  -27.7392 C   0  0  0  0  0  0  0  0  0  0  0  0
  -18.7594   -3.0254  -29.9677 C   0  0  0  0  0  0  0  0  0  0  0  0
  -22.0351   -4.7496  -30.3938 C   0  0  0  0  0  0  0  0  0  0  0  0
  -22.0293   -2.3322  -31.1201 C   0  0  0  0  0  0  0  0  0  0  0  0
  -22.9874   -5.0818  -31.5339 C   0  0  0  0  0  0  0  0  0  0  0  0
  -22.9813   -2.6793  -32.2561 C   0  0  0  0  0  0  0  0  0  0  0  0
  -22.1766   -3.2951  -29.9401 C   0  0  0  0  0  0  0  0  0  0  0  0
  -19.1007   -0.7202  -30.5029 C   0  0  0  0  0  0  0  0  0  0  0  0
  -21.3525   -5.8641  -33.6835 C   0  0  0  0  0  0  0  0  0  0  0  0
  -21.5750   -4.3664  -33.4992 C   0  0  0  0  0  0  0  0  0  0  0  0
  -26.9577   -4.5737  -22.3359 C   0  0  0  0  0  0  0  0  0  0  0  0
  -15.9224   -7.4036  -37.6182 N   0  0  0  0  0  0  0  0  0  0  0  0
  -21.1270   -6.7746  -23.2533 N   0  0  0  0  0  0  0  0  0  0  0  0
  -18.9055   -5.9221  -26.1169 N   0  0  0  0  0  0  0  0  0  0  0  0
  -20.0605   -4.4475  -27.3660 N   0  0  0  0  0  0  0  0  0  0  0  0
  -21.2190   -2.9865  -28.9051 N   0  0  0  0  0  0  0  0  0  0  0  0
  -22.8132   -4.1173  -32.6807 N   0  3  0  0  0  0  0  0  0  0  0  0
  -19.4059   -3.3819  -30.9662 O   0  0  0  0  0  0  0  0  0  0  0  0
  -18.5422   -1.7134  -29.6361 O   0  0  0  0  0  0  0  0  0  0  0  0
  -28.0841   -5.0202  -22.9667 F   0  0  0  0  0  0  0  0  0  0  0  0
  -26.8327   -5.3640  -21.2289 F   0  0  0  0  0  0  0  0  0  0  0  0
  -27.2701   -3.3311  -21.8653 F   0  0  0  0  0  0  0  0  0  0  0  0
  -15.1565   -5.5587  -28.8140 H   0  0  0  0  0  0  0  0  0  0  0  0
  -19.0824   -8.5938  -36.6922 H   0  0  0  0  0  0  0  0  0  0  0  0
  -17.1152   -4.9792  -35.3912 H   0  0  0  0  0  0  0  0  0  0  0  0
  -24.7953   -5.3290  -26.3764 H   0  0  0  0  0  0  0  0  0  0  0  0
  -22.4436   -3.7900  -23.1017 H   0  0  0  0  0  0  0  0  0  0  0  0
  -16.3126   -3.8676  -30.1611 H   0  0  0  0  0  0  0  0  0  0  0  0
  -21.0215   -8.0402  -35.2843 H   0  0  0  0  0  0  0  0  0  0  0  0
  -19.0573   -4.4329  -33.9854 H   0  0  0  0  0  0  0  0  0  0  0  0
  -26.7891   -5.3366  -24.9359 H   0  0  0  0  0  0  0  0  0  0  0  0
  -24.4416   -3.8014  -21.6666 H   0  0  0  0  0  0  0  0  0  0  0  0
  -16.2822   -6.6144  -26.8714 H   0  0  0  0  0  0  0  0  0  0  0  0
  -23.1531   -3.1414  -27.1229 H   0  0  0  0  0  0  0  0  0  0  0  0
  -22.2524   -5.4060  -29.5465 H   0  0  0  0  0  0  0  0  0  0  0  0
  -21.0066   -4.9585  -30.6959 H   0  0  0  0  0  0  0  0  0  0  0  0
  -20.9993   -2.3304  -31.4863 H   0  0  0  0  0  0  0  0  0  0  0  0
  -22.2396   -1.3147  -30.7759 H   0  0  0  0  0  0  0  0  0  0  0  0
  -22.8242   -6.0985  -31.9266 H   0  0  0  0  0  0  0  0  0  0  0  0
  -24.0324   -5.0028  -31.1958 H   0  0  0  0  0  0  0  0  0  0  0  0
  -24.0263   -2.5548  -31.9303 H   0  0  0  0  0  0  0  0  0  0  0  0
  -22.8167   -2.0474  -33.1443 H   0  0  0  0  0  0  0  0  0  0  0  0
  -23.1834   -3.1605  -29.5004 H   0  0  0  0  0  0  0  0  0  0  0  0
  -18.8540    0.2748  -30.1246 H   0  0  0  0  0  0  0  0  0  0  0  0
  -20.1854   -0.8451  -30.5503 H   0  0  0  0  0  0  0  0  0  0  0  0
  -18.6777   -0.8426  -31.5028 H   0  0  0  0  0  0  0  0  0  0  0  0
  -22.2514   -6.2928  -34.1463 H   0  0  0  0  0  0  0  0  0  0  0  0
  -21.2643   -6.3511  -32.7036 H   0  0  0  0  0  0  0  0  0  0  0  0
  -21.7405   -3.8770  -34.4636 H   0  0  0  0  0  0  0  0  0  0  0  0
  -20.7464   -3.8746  -32.9807 H   0  0  0  0  0  0  0  0  0  0  0  0
  -20.5503   -2.2610  -28.9921 H   0  0  0  0  0  0  0  0  0  0  0  0
  -23.6221   -4.3134  -33.3396 H   0  0  0  0  0  0  0  0  0  0  0  0
  1 14  1  0  0  0  0
  1 36  3  0  0  0  0
  2 23  1  0  0  0  0
  2 37  3  0  0  0  0
  3  8  2  0  0  0  0
  3 13  1  0  0  0  0
  4  9  1  0  0  0  0
  4 14  2  0  0  0  0
  5 10  2  0  0  0  0
  5 14  1  0  0  0  0
  6 11  1  0  0  0  0
  6 15  2  0  0  0  0
  7 12  2  0  0  0  0
  7 15  1  0  0  0  0
  8 16  1  0  0  0  0
  9 17  2  0  0  0  0
 10 17  1  0  0  0  0
 11 18  2  0  0  0  0
 12 18  1  0  0  0  0
 13 19  2  0  0  0  0
 15 24  1  0  0  0  0
 16 20  2  0  0  0  0
 16 26  1  0  0  0  0
 17 33  1  0  0  0  0
 18 35  1  0  0  0  0
 19 20  1  0  0  0  0
 19 38  1  0  0  0  0
 20 39  1  0  0  0  0
 21 23  1  0  0  0  0
 21 38  2  0  0  0  0
 21 39  1  0  0  0  0
 22 24  1  0  0  0  0
 22 25  2  0  0  0  0
 23 24  2  0  0  0  0
 25 39  1  0  0  0  0
 25 40  1  0  0  0  0
 26 42  2  0  0  0  0
 26 43  1  0  0  0  0
 27 29  1  0  0  0  0
 27 31  1  0  0  0  0
 28 30  1  0  0  0  0
 28 31  1  0  0  0  0
 29 41  1  0  0  0  0
 30 41  1  0  0  0  0
 31 40  1  0  0  0  0
 32 43  1  0  0  0  0
 33 34  1  0  0  0  0
 34 41  1  0  0  0  0
 35 44  1  0  0  0  0
 35 45  1  0  0  0  0
 35 46  1  0  0  0  0
  3 47  1  0  0  0  0
  4 48  1  0  0  0  0
  5 49  1  0  0  0  0
  6 50  1  0  0  0  0
  7 51  1  0  0  0  0
  8 52  1  0  0  0  0
  9 53  1  0  0  0  0
 10 54  1  0  0  0  0
 11 55  1  0  0  0  0
 12 56  1  0  0  0  0
 13 57  1  0  0  0  0
 22 58  1  0  0  0  0
 27 59  1  0  0  0  0
 27 60  1  0  0  0  0
 28 61  1  0  0  0  0
 28 62  1  0  0  0  0
 29 63  1  0  0  0  0
 29 64  1  0  0  0  0
 30 65  1  0  0  0  0
 30 66  1  0  0  0  0
 31 67  1  0  0  0  0
 32 68  1  0  0  0  0
 32 69  1  0  0  0  0
 32 70  1  0  0  0  0
 33 71  1  0  0  0  0
 33 72  1  0  0  0  0
 34 73  1  0  0  0  0
 34 74  1  0  0  0  0
 40 75  1  0  0  0  0
 41 76  1  0  0  0  0
M  CHG  1  41   1
M  END
> <SMILES>
COC(=O)c1cccc2nc3c(c(cc(n3c12)NC1CCN(CC1)CCc1ccc(cc1)C#N)-c1ccc(cc1)C(F)(F)F)C#N

> <FORMATTED_ID>
H3D-004828

> <MOLFORMULA>
C35H29F3N6O2

> <Exact Mass>
622.23

> <XLogP>
7.99

> <TPSA_NOPS>
106.5

> <s_m_source_file>
ligprep_h3d.sdf

> <i_m_source_file_index>
2207

> <i_lp_mmshare_version>
55123

> <i_f3d_flags>
0

> <s_epik_input>
W0NIM11PQyg9TyljKFtjSF1bY0hdW2NIXTEpYyhjMTIpbjNjKG4yKWMoQyNOKWMoLWM0W2NIXVtjSF1jKEMoRikoRilGKVtjSF1bY0hdNClbY0hdYzNbTkhdW0NIXTVbQ0gyXVtDSDJdTihbQ0gyXVtDSDJdNSlbQ0gyXVtDSDJdYzZbY0hdW2NIXWMoQyNOKVtjSF1bY0hdNg==

> <s_epik_cmdline>
J2VwaWtfcHl0aG9uJywgJy1waHQnLCAnMC41JywgJy1waCcsICc3LjUnLCAnLXRuJywgJzgnLCAnLW1hJywgJzUwMCcsICctaW1hZScsICc8aW5maWxlLm1hZT4nLCAnLW9tYWUnLCAnPG91dGZpbGUubWFlPic=

> <r_lp_tautomer_probability>
1

> <r_epik_Ionization_Penalty>
0.00808817

> <r_epik_Ionization_Penalty_Charging>
0.00775607

> <r_epik_Ionization_Penalty_Neutral>
0.000332094

> <r_epik_State_Penalty>
-0

> <r_epik_Charging_Adjusted_Penalty>
0.00775607

> <i_epik_Tot_Q>
1

> <i_epik_Tot_abs_Q>
1

> <s_epik_Chemistry_Notes>
This compound has an ester and may undergo hydrolysis at high or low pH.

> <s_lp_Force_Field>
S-OPLS

> <r_lp_Energy>
86.9997

> <b_lp_Chiralities_Consistent>
1

> <s_lp_Variant>
ligprep_h3d.sdf:2207-1

> <ROCS_ShapeQuery>
_7L13

> <ROCS_TanimotoCombo>
0.700 

> <ROCS_ShapeTanimoto>
0.556 

> <ROCS_ColorTanimoto>
0.145 

> <ROCS_RefTversky>
0.804 

> <ROCS_RefColorTversky>
0.303 

> <ROCS_RefTverskyCombo>
1.107 

> <ROCS_FitTversky>
0.642 

> <ROCS_FitColorTversky>
0.217 

> <ROCS_FitTverskyCombo>
0.859 

> <ROCS_ColorScore>
-2.784

> <ROCS_Overlap>
1354.774

> <ROCS_Rank>
171                 

$$$$
ligprep_h3d.sdf:412_290
  -OEChem-08212117123D

 63 68  0     1  0  0  0  0  0999 V2000
  -20.9580   -5.1059  -29.5113 C   0  0  0  0  0  0  0  0  0  0  0  0
  -21.7430   -4.3526  -30.3867 C   0  0  0  0  0  0  0  0  0  0  0  0
  -21.0750   -4.8724  -28.1199 C   0  0  0  0  0  0  0  0  0  0  0  0
  -21.9854   -3.9332  -27.5801 C   0  0  0  0  0  0  0  0  0  0  0  0
  -22.6030   -3.4160  -29.8566 C   0  0  0  0  0  0  0  0  0  0  0  0
  -22.7546   -3.1720  -28.4914 C   0  0  0  0  0  0  0  0  0  0  0  0
  -21.9405   -4.2409  -31.7756 C   0  0  0  0  0  0  0  0  0  0  0  0
  -18.9030   -3.7447  -26.2423 C   0  0  0  0  0  0  0  0  0  0  0  0
  -19.1812   -5.9679  -25.0250 C   0  0  0  0  0  0  0  0  0  0  0  0
  -17.0245   -5.0461  -25.8440 C   0  0  0  0  0  0  0  0  0  0  0  0
  -19.8114   -8.5272  -35.6017 C   0  0  0  0  0  0  0  0  0  0  0  0
  -20.2038   -5.6866  -27.2013 C   0  0  0  0  0  0  0  0  0  0  0  0
  -19.4835   -5.9323  -33.9465 C   0  0  0  0  0  0  0  0  0  0  0  0
  -19.9668   -4.6498  -33.2693 C   0  0  0  0  0  0  0  0  0  0  0  0
  -21.6998   -6.3350  -33.1392 C   0  0  0  0  0  0  0  0  0  0  0  0
  -23.0791   -2.8299  -25.6385 C   0  0  0  0  0  0  0  0  0  0  0  0
  -21.1862   -4.4501  -25.2393 C   0  0  2  0  0  0  0  0  0  0  0  0
  -20.7836   -6.6251  -34.3291 C   0  0  2  0  0  0  0  0  0  0  0  0
  -23.4383   -3.1641  -24.1877 C   0  0  1  0  0  0  0  0  0  0  0  0
  -21.0512   -3.5165  -24.0006 C   0  0  2  0  0  0  0  0  0  0  0  0
  -19.8500   -4.9196  -25.9032 C   0  0  2  0  0  0  0  0  0  0  0  0
  -19.7881  -10.0171  -35.6909 C   0  0  0  0  0  0  0  0  0  0  0  0
  -24.3912   -4.3529  -24.0774 C   0  0  0  0  0  0  0  0  0  0  0  0
  -20.0774   -3.9657  -22.9186 C   0  0  0  0  0  0  0  0  0  0  0  0
  -22.8473   -3.3094  -32.0854 N   0  0  0  0  0  0  0  0  0  0  0  0
  -17.6327   -4.0591  -26.5031 N   0  5  0  0  0  0  0  0  0  0  0  0
  -17.8027   -5.9177  -25.0843 N   0  0  0  0  0  0  0  0  0  0  0  0
  -22.0965   -3.7669  -26.1974 N   0  0  3  0  0  0  0  0  0  0  0  0
  -21.2502   -5.0227  -32.6772 N   0  0  0  0  0  0  0  0  0  0  0  0
  -20.6193   -8.0249  -34.5904 N   0  0  0  0  0  0  0  0  0  0  0  0
  -19.3421   -2.6025  -26.3736 O   0  0  0  0  0  0  0  0  0  0  0  0
  -19.7930   -6.8231  -24.3889 O   0  0  0  0  0  0  0  0  0  0  0  0
  -15.8056   -5.2324  -25.8927 O   0  0  0  0  0  0  0  0  0  0  0  0
  -19.1458   -7.8644  -36.3886 O   0  0  0  0  0  0  0  0  0  0  0  0
  -23.2639   -2.7868  -30.8666 O   0  0  0  0  0  0  0  0  0  0  0  0
  -22.3184   -3.4016  -23.3398 O   0  0  0  0  0  0  0  0  0  0  0  0
  -23.5462   -2.1593  -28.1185 F   0  0  0  0  0  0  0  0  0  0  0  0
  -20.2635   -5.8501  -29.8906 H   0  0  0  0  0  0  0  0  0  0  0  0
  -20.7419   -6.6161  -26.9700 H   0  0  0  0  0  0  0  0  0  0  0  0
  -19.2862   -5.9818  -27.7269 H   0  0  0  0  0  0  0  0  0  0  0  0
  -18.8477   -5.7259  -34.8126 H   0  0  0  0  0  0  0  0  0  0  0  0
  -18.9122   -6.5358  -33.2300 H   0  0  0  0  0  0  0  0  0  0  0  0
  -19.2468   -4.3026  -32.5194 H   0  0  0  0  0  0  0  0  0  0  0  0
  -20.1208   -3.8536  -34.0076 H   0  0  0  0  0  0  0  0  0  0  0  0
  -22.7541   -6.3240  -33.4395 H   0  0  0  0  0  0  0  0  0  0  0  0
  -21.5666   -7.0685  -32.3337 H   0  0  0  0  0  0  0  0  0  0  0  0
  -23.9898   -2.8930  -26.2691 H   0  0  0  0  0  0  0  0  0  0  0  0
  -22.7945   -1.7668  -25.6746 H   0  0  0  0  0  0  0  0  0  0  0  0
  -21.7377   -5.3458  -24.9108 H   0  0  0  0  0  0  0  0  0  0  0  0
  -21.1974   -6.1691  -35.2366 H   0  0  0  0  0  0  0  0  0  0  0  0
  -24.0087   -2.2755  -23.7451 H   0  0  0  0  0  0  0  0  0  0  0  0
  -20.7469   -2.4987  -24.3047 H   0  0  0  0  0  0  0  0  0  0  0  0
  -20.5706  -10.4106  -36.3595 H   0  0  0  0  0  0  0  0  0  0  0  0
  -18.8382  -10.3992  -36.0981 H   0  0  0  0  0  0  0  0  0  0  0  0
  -19.9285  -10.5487  -34.7361 H   0  0  0  0  0  0  0  0  0  0  0  0
  -23.9188   -5.2484  -24.4816 H   0  0  0  0  0  0  0  0  0  0  0  0
  -25.3047   -4.1519  -24.6372 H   0  0  0  0  0  0  0  0  0  0  0  0
  -24.6481   -4.5294  -23.0328 H   0  0  0  0  0  0  0  0  0  0  0  0
  -20.3330   -4.9700  -22.5805 H   0  0  0  0  0  0  0  0  0  0  0  0
  -20.1235   -3.2842  -22.0691 H   0  0  0  0  0  0  0  0  0  0  0  0
  -19.0606   -3.9729  -23.3116 H   0  0  0  0  0  0  0  0  0  0  0  0
  -17.3007   -6.5896  -24.5115 H   0  0  0  0  0  0  0  0  0  0  0  0
  -21.1238   -8.6887  -34.0009 H   0  0  0  0  0  0  0  0  0  0  0  0
  1  2  2  0  0  0  0
  1  3  1  0  0  0  0
  2  5  1  0  0  0  0
  2  7  1  0  0  0  0
  3  4  2  0  0  0  0
  3 12  1  0  0  0  0
  4  6  1  0  0  0  0
  4 28  1  0  0  0  0
  5  6  2  0  0  0  0
  5 35  1  0  0  0  0
  6 37  1  0  0  0  0
  7 25  2  0  0  0  0
  7 29  1  0  0  0  0
  8 21  1  0  0  0  0
  8 26  1  0  0  0  0
  8 31  2  0  0  0  0
  9 21  1  0  0  0  0
  9 27  1  0  0  0  0
  9 32  2  0  0  0  0
 10 26  1  0  0  0  0
 10 27  1  0  0  0  0
 10 33  2  0  0  0  0
 11 22  1  0  0  0  0
 11 30  1  0  0  0  0
 11 34  2  0  0  0  0
 12 21  1  0  0  0  0
 13 14  1  0  0  0  0
 13 18  1  0  0  0  0
 14 29  1  0  0  0  0
 15 18  1  0  0  0  0
 15 29  1  0  0  0  0
 16 19  1  0  0  0  0
 16 28  1  0  0  0  0
 17 20  1  0  0  0  0
 17 21  1  0  0  0  0
 17 28  1  0  0  0  0
 18 30  1  0  0  0  0
 19 23  1  0  0  0  0
 19 36  1  0  0  0  0
 20 24  1  0  0  0  0
 20 36  1  0  0  0  0
 25 35  1  0  0  0  0
  1 38  1  0  0  0  0
 12 39  1  0  0  0  0
 12 40  1  0  0  0  0
 13 41  1  0  0  0  0
 13 42  1  0  0  0  0
 14 43  1  0  0  0  0
 14 44  1  0  0  0  0
 15 45  1  0  0  0  0
 15 46  1  0  0  0  0
 16 47  1  0  0  0  0
 16 48  1  0  0  0  0
 17 49  1  0  0  0  0
 18 50  1  0  0  0  0
 19 51  1  0  0  0  0
 20 52  1  0  0  0  0
 22 53  1  0  0  0  0
 22 54  1  0  0  0  0
 22 55  1  0  0  0  0
 23 56  1  0  0  0  0
 23 57  1  0  0  0  0
 23 58  1  0  0  0  0
 24 59  1  0  0  0  0
 24 60  1  0  0  0  0
 24 61  1  0  0  0  0
 27 62  1  0  0  0  0
 30 63  1  0  0  0  0
M  CHG  1  26  -1
M  END
> <SMILES>
CC1CN2C(C(C)O1)C1(Cc3cc4c(noc4c(c32)F)N2CC[C@H](C2)NC(=O)C)C(=O)NC(=O)NC1=O

> <FORMATTED_ID>
H3D-003833

> <MOLFORMULA>
C24H27FN6O6

> <Exact Mass>
514.2

> <XLogP>
0.23

> <TPSA_NOPS>
146.4

> <s_m_source_file>
ligprep_h3d.sdf

> <i_m_source_file_index>
412

> <i_lp_mmshare_version>
55123

> <i_f3d_flags>
0

> <s_epik_input>
Tz1DMVtOSF1DKD1PKVtOSF1DKD1PKUMxMltDQEBIXTNOKFtDSDJdW0NAQEhdKFtDSDNdKU9bQ0BIXTNbQ0gzXSljNGMoW0NIMl0yKVtjSF1jNWMoYzRGKW9uYzVONltDSDJdW0NIMl1bQ0BIXShbQ0gyXTYpW05IXUMoPU8pW0NIM10=

> <s_epik_cmdline>
J2VwaWtfcHl0aG9uJywgJy1waHQnLCAnMC41JywgJy1waCcsICc3LjUnLCAnLXRuJywgJzgnLCAnLW1hJywgJzUwMCcsICctaW1hZScsICc8aW5maWxlLm1hZT4nLCAnLW9tYWUnLCAnPG91dGZpbGUubWFlPic=

> <r_lp_tautomer_probability>
1

> <r_epik_Ionization_Penalty>
0.455389

> <r_epik_Ionization_Penalty_Charging>
0.455373

> <r_epik_Ionization_Penalty_Neutral>
1.5337e-05

> <r_epik_State_Penalty>
0.458483

> <r_epik_Charging_Adjusted_Penalty>
0.913857

> <i_epik_Tot_Q>
-1

> <i_epik_Tot_abs_Q>
1

> <s_lp_Force_Field>
S-OPLS

> <r_lp_Energy>
51.8888

> <b_lp_Chiralities_Consistent>
1

> <s_lp_Variant>
ligprep_h3d.sdf:412-2

> <ROCS_ShapeQuery>
_7L13

> <ROCS_TanimotoCombo>
0.772 

> <ROCS_ShapeTanimoto>
0.647 

> <ROCS_ColorTanimoto>
0.124 

> <ROCS_RefTversky>
0.804 

> <ROCS_RefColorTversky>
0.296 

> <ROCS_RefTverskyCombo>
1.100 

> <ROCS_FitTversky>
0.768 

> <ROCS_FitColorTversky>
0.176 

> <ROCS_FitTverskyCombo>
0.945 

> <ROCS_ColorScore>
-2.767

> <ROCS_Overlap>
1339.193

> <ROCS_Rank>
172                 

$$$$
ligprep_h3d.sdf:5120_1992
  -OEChem-08212117123D

 63 67  0     0  0  0  0  0  0999 V2000
  -18.7570   -6.4240  -35.3048 C   0  0  0  0  0  0  0  0  0  0  0  0
  -19.7898   -7.2817  -34.9263 C   0  0  0  0  0  0  0  0  0  0  0  0
  -18.6567   -5.1570  -34.7302 C   0  0  0  0  0  0  0  0  0  0  0  0
  -20.7224   -6.8723  -33.9732 C   0  0  0  0  0  0  0  0  0  0  0  0
  -19.5892   -4.7476  -33.7771 C   0  0  0  0  0  0  0  0  0  0  0  0
  -18.4269   -6.1908  -27.3109 C   0  0  0  0  0  0  0  0  0  0  0  0
  -18.3141   -4.9095  -25.2787 C   0  0  0  0  0  0  0  0  0  0  0  0
  -23.2548   -3.9333  -28.5982 C   0  0  0  0  0  0  0  0  0  0  0  0
  -20.5632   -4.5480  -29.1499 C   0  0  0  0  0  0  0  0  0  0  0  0
  -17.1507   -6.6504  -27.0285 C   0  0  0  0  0  0  0  0  0  0  0  0
  -17.0429   -5.4265  -25.0871 C   0  0  0  0  0  0  0  0  0  0  0  0
  -22.3621   -4.2261  -27.5744 C   0  0  0  0  0  0  0  0  0  0  0  0
  -20.6221   -5.6053  -33.3985 C   0  0  0  0  0  0  0  0  0  0  0  0
  -19.0126   -5.3041  -26.4144 C   0  0  0  0  0  0  0  0  0  0  0  0
  -21.0233   -4.5504  -27.8390 C   0  0  0  0  0  0  0  0  0  0  0  0
  -22.7915   -3.9456  -29.9122 C   0  0  0  0  0  0  0  0  0  0  0  0
  -21.4529   -4.2470  -30.1859 C   0  0  0  0  0  0  0  0  0  0  0  0
  -23.4047   -5.5802  -25.7421 C   0  0  0  0  0  0  0  0  0  0  0  0
  -23.3907   -3.0736  -25.5505 C   0  0  0  0  0  0  0  0  0  0  0  0
  -23.8001   -5.6469  -24.2623 C   0  0  0  0  0  0  0  0  0  0  0  0
  -23.7397   -3.2301  -24.0681 C   0  0  0  0  0  0  0  0  0  0  0  0
  -21.1607   -4.3362  -25.5538 C   0  0  0  0  0  0  0  0  0  0  0  0
  -22.6267   -4.2945  -26.0911 C   0  0  0  0  0  0  0  0  0  0  0  0
  -23.7675   -2.2903  -31.3133 C   0  0  0  0  0  0  0  0  0  0  0  0
  -21.6250   -5.1642  -32.3734 C   0  0  0  0  0  0  0  0  0  0  0  0
  -24.9308   -4.5486  -22.4418 C   0  0  0  0  0  0  0  0  0  0  0  0
  -26.1608   -5.4203  -22.2987 C   0  0  0  0  0  0  0  0  0  0  0  0
  -16.4410   -6.2898  -25.9357 N   0  0  0  0  0  0  0  0  0  0  0  0
  -20.2986   -4.8105  -26.6538 N   0  0  0  0  0  0  0  0  0  0  0  0
  -24.5342   -4.4452  -23.8460 N   0  0  0  0  0  0  0  0  0  0  0  0
  -23.6545   -3.6583  -30.9272 O   0  0  0  0  0  0  0  0  0  0  0  0
  -20.9997   -4.2537  -31.4723 O   0  0  0  0  0  0  0  0  0  0  0  0
  -27.0525   -5.1263  -23.2777 F   0  0  0  0  0  0  0  0  0  0  0  0
  -26.7734   -5.1345  -21.1213 F   0  0  0  0  0  0  0  0  0  0  0  0
  -18.0302   -6.7435  -36.0460 H   0  0  0  0  0  0  0  0  0  0  0  0
  -19.8675   -8.2687  -35.3728 H   0  0  0  0  0  0  0  0  0  0  0  0
  -17.8521   -4.4894  -35.0238 H   0  0  0  0  0  0  0  0  0  0  0  0
  -21.5239   -7.5472  -33.6845 H   0  0  0  0  0  0  0  0  0  0  0  0
  -19.5032   -3.7586  -33.3348 H   0  0  0  0  0  0  0  0  0  0  0  0
  -18.9450   -6.5186  -28.2060 H   0  0  0  0  0  0  0  0  0  0  0  0
  -18.7416   -4.2193  -24.5591 H   0  0  0  0  0  0  0  0  0  0  0  0
  -24.2938   -3.7038  -28.3840 H   0  0  0  0  0  0  0  0  0  0  0  0
  -19.5265   -4.7826  -29.3745 H   0  0  0  0  0  0  0  0  0  0  0  0
  -16.6499   -7.3438  -27.6961 H   0  0  0  0  0  0  0  0  0  0  0  0
  -16.4564   -5.1507  -24.2169 H   0  0  0  0  0  0  0  0  0  0  0  0
  -22.8187   -6.4721  -25.9991 H   0  0  0  0  0  0  0  0  0  0  0  0
  -24.3202   -5.6337  -26.3479 H   0  0  0  0  0  0  0  0  0  0  0  0
  -24.3237   -2.9303  -26.1122 H   0  0  0  0  0  0  0  0  0  0  0  0
  -22.8088   -2.1545  -25.6959 H   0  0  0  0  0  0  0  0  0  0  0  0
  -24.4341   -6.5314  -24.1232 H   0  0  0  0  0  0  0  0  0  0  0  0
  -22.9087   -5.7945  -23.6402 H   0  0  0  0  0  0  0  0  0  0  0  0
  -22.8239   -3.2407  -23.4631 H   0  0  0  0  0  0  0  0  0  0  0  0
  -24.3184   -2.3497  -23.7628 H   0  0  0  0  0  0  0  0  0  0  0  0
  -20.8284   -3.3301  -25.2618 H   0  0  0  0  0  0  0  0  0  0  0  0
  -21.0540   -4.9817  -24.6753 H   0  0  0  0  0  0  0  0  0  0  0  0
  -24.4868   -2.1998  -32.1309 H   0  0  0  0  0  0  0  0  0  0  0  0
  -22.7901   -1.9184  -31.6308 H   0  0  0  0  0  0  0  0  0  0  0  0
  -24.1166   -1.7072  -30.4578 H   0  0  0  0  0  0  0  0  0  0  0  0
  -22.4781   -4.6675  -32.8482 H   0  0  0  0  0  0  0  0  0  0  0  0
  -22.0064   -6.0224  -31.8097 H   0  0  0  0  0  0  0  0  0  0  0  0
  -25.1442   -3.5471  -22.0543 H   0  0  0  0  0  0  0  0  0  0  0  0
  -24.1088   -4.9617  -21.8482 H   0  0  0  0  0  0  0  0  0  0  0  0
  -25.9382   -6.4911  -22.3262 H   0  0  0  0  0  0  0  0  0  0  0  0
  1  2  2  0  0  0  0
  1  3  1  0  0  0  0
  2  4  1  0  0  0  0
  3  5  2  0  0  0  0
  4 13  2  0  0  0  0
  5 13  1  0  0  0  0
  6 10  1  0  0  0  0
  6 14  2  0  0  0  0
  7 11  2  0  0  0  0
  7 14  1  0  0  0  0
  8 12  1  0  0  0  0
  8 16  2  0  0  0  0
  9 15  1  0  0  0  0
  9 17  2  0  0  0  0
 10 28  2  0  0  0  0
 11 28  1  0  0  0  0
 12 15  2  0  0  0  0
 12 23  1  0  0  0  0
 13 25  1  0  0  0  0
 14 29  1  0  0  0  0
 15 29  1  0  0  0  0
 16 17  1  0  0  0  0
 16 31  1  0  0  0  0
 17 32  1  0  0  0  0
 18 20  1  0  0  0  0
 18 23  1  0  0  0  0
 19 21  1  0  0  0  0
 19 23  1  0  0  0  0
 20 30  1  0  0  0  0
 21 30  1  0  0  0  0
 22 23  1  0  0  0  0
 22 29  1  0  0  0  0
 24 31  1  0  0  0  0
 25 32  1  0  0  0  0
 26 27  1  0  0  0  0
 26 30  1  0  0  0  0
 27 33  1  0  0  0  0
 27 34  1  0  0  0  0
  1 35  1  0  0  0  0
  2 36  1  0  0  0  0
  3 37  1  0  0  0  0
  4 38  1  0  0  0  0
  5 39  1  0  0  0  0
  6 40  1  0  0  0  0
  7 41  1  0  0  0  0
  8 42  1  0  0  0  0
  9 43  1  0  0  0  0
 10 44  1  0  0  0  0
 11 45  1  0  0  0  0
 18 46  1  0  0  0  0
 18 47  1  0  0  0  0
 19 48  1  0  0  0  0
 19 49  1  0  0  0  0
 20 50  1  0  0  0  0
 20 51  1  0  0  0  0
 21 52  1  0  0  0  0
 21 53  1  0  0  0  0
 22 54  1  0  0  0  0
 22 55  1  0  0  0  0
 24 56  1  0  0  0  0
 24 57  1  0  0  0  0
 24 58  1  0  0  0  0
 25 59  1  0  0  0  0
 25 60  1  0  0  0  0
 26 61  1  0  0  0  0
 26 62  1  0  0  0  0
 27 63  1  0  0  0  0
M  END
> <SMILES>
COc1cc2c(cc1OCc1ccccc1)N(CC12CCN(CC1)CC(F)F)c1ccncc1

> <FORMATTED_ID>
H3D-012688

> <MOLFORMULA>
C27H29F2N3O2

> <Exact Mass>
465.22

> <XLogP>
5.35

> <TPSA_NOPS>
37.8

> <s_m_source_file>
ligprep_h3d.sdf

> <i_m_source_file_index>
5120

> <i_lp_mmshare_version>
55123

> <i_f3d_flags>
0

> <s_epik_input>
W2NIXTFbY0hdW2NIXVtjSF1bY0hdYzFbQ0gyXU9jKGMoW2NIXTIpT1tDSDNdKVtjSF1jKGMyQzM0W0NIMl1bQ0gyXU4oW0NIMl1bQ0gyXTQpW0NIMl1bQ0hdKEYpRilOKFtDSDJdMyljNVtjSF1bY0hdbltjSF1bY0hdNQ==

> <s_epik_cmdline>
J2VwaWtfcHl0aG9uJywgJy1waHQnLCAnMC41JywgJy1waCcsICc3LjUnLCAnLXRuJywgJzgnLCAnLW1hJywgJzUwMCcsICctaW1hZScsICc8aW5maWxlLm1hZT4nLCAnLW9tYWUnLCAnPG91dGZpbGUubWFlPic=

> <r_lp_tautomer_probability>
1

> <r_epik_Ionization_Penalty>
0.296028

> <r_epik_Ionization_Penalty_Charging>
0

> <r_epik_Ionization_Penalty_Neutral>
0.296028

> <r_epik_State_Penalty>
0.262107

> <r_epik_Charging_Adjusted_Penalty>
0.262107

> <i_epik_Tot_Q>
0

> <i_epik_Tot_abs_Q>
0

> <s_lp_Force_Field>
S-OPLS

> <r_lp_Energy>
65.7423

> <b_lp_Chiralities_Consistent>
1

> <s_lp_Variant>
ligprep_h3d.sdf:5120-1

> <ROCS_ShapeQuery>
_7L13

> <ROCS_TanimotoCombo>
0.773 

> <ROCS_ShapeTanimoto>
0.705 

> <ROCS_ColorTanimoto>
0.067 

> <ROCS_RefTversky>
0.804 

> <ROCS_RefColorTversky>
0.126 

> <ROCS_RefTverskyCombo>
0.930 

> <ROCS_FitTversky>
0.852 

> <ROCS_FitColorTversky>
0.126 

> <ROCS_FitTverskyCombo>
0.978 

> <ROCS_ColorScore>
-1.135

> <ROCS_Overlap>
1331.339

> <ROCS_Rank>
173                 

$$$$
ligprep_h3d.sdf:1190_1674
  -OEChem-08212117123D

 71 75  0     1  0  0  0  0  0999 V2000
  -19.8955   -3.8916  -32.3129 C   0  0  0  0  0  0  0  0  0  0  0  0
  -20.4262   -6.2422  -32.1399 C   0  0  0  0  0  0  0  0  0  0  0  0
  -19.3396   -4.1099  -33.5735 C   0  0  0  0  0  0  0  0  0  0  0  0
  -19.8704   -6.4605  -33.4004 C   0  0  0  0  0  0  0  0  0  0  0  0
  -16.7814   -6.0449  -26.5640 C   0  0  0  0  0  0  0  0  0  0  0  0
  -22.9308   -4.1978  -28.9212 C   0  0  0  0  0  0  0  0  0  0  0  0
  -20.6363   -4.4610  -25.4663 C   0  0  0  0  0  0  0  0  0  0  0  0
  -16.6189   -4.6504  -26.6680 C   0  0  0  0  0  0  0  0  0  0  0  0
  -20.8055   -4.6004  -27.8739 C   0  0  0  0  0  0  0  0  0  0  0  0
  -20.4387   -4.9577  -31.5961 C   0  0  0  0  0  0  0  0  0  0  0  0
  -21.0151   -4.7313  -30.2886 C   0  0  0  0  0  0  0  0  0  0  0  0
  -19.3271   -5.3943  -34.1172 C   0  0  0  0  0  0  0  0  0  0  0  0
  -22.3644   -4.4185  -30.1791 C   0  0  0  0  0  0  0  0  0  0  0  0
  -20.2356   -4.8224  -29.1391 C   0  0  0  0  0  0  0  0  0  0  0  0
  -22.1748   -4.2826  -27.7553 C   0  0  0  0  0  0  0  0  0  0  0  0
  -20.0440   -4.6857  -26.7006 C   0  0  0  0  0  0  0  0  0  0  0  0
  -21.9823   -4.1561  -25.4505 C   0  0  0  0  0  0  0  0  0  0  0  0
  -18.1420   -6.2329  -26.5637 C   0  0  0  0  0  0  0  0  0  0  0  0
  -22.6644   -3.9108  -24.1914 C   0  0  0  0  0  0  0  0  0  0  0  0
  -25.9074   -5.1381  -22.8287 C   0  0  0  0  0  0  0  0  0  0  0  0
  -18.1683   -7.3442  -37.0758 C   0  0  0  0  0  0  0  0  0  0  0  0
  -20.4750   -6.9066  -36.5410 C   0  0  0  0  0  0  0  0  0  0  0  0
  -18.5853   -8.7008  -37.6367 C   0  0  0  0  0  0  0  0  0  0  0  0
  -20.8375   -8.2739  -37.1135 C   0  0  0  0  0  0  0  0  0  0  0  0
  -23.2469   -4.3066  -31.3817 C   0  0  0  0  0  0  0  0  0  0  0  0
  -18.7851   -5.1644  -29.3356 C   0  0  0  0  0  0  0  0  0  0  0  0
  -18.9397   -7.4720  -26.4781 C   0  0  0  0  0  0  0  0  0  0  0  0
  -25.4074   -2.6212  -22.9762 C   0  0  0  0  0  0  0  0  0  0  0  0
  -18.7285   -5.6294  -35.4739 C   0  0  0  0  0  0  0  0  0  0  0  0
  -24.8442   -4.0345  -22.9568 C   0  0  2  0  0  0  0  0  0  0  0  0
  -17.7832   -3.9988  -26.7295 N   0  0  0  0  0  0  0  0  0  0  0  0
  -22.7524   -4.0639  -26.5588 N   0  0  0  0  0  0  0  0  0  0  0  0
  -18.6903   -4.9881  -26.6640 N   0  0  0  0  0  0  0  0  0  0  0  0
  -19.1020   -6.9333  -36.0180 N   0  0  0  0  0  0  0  0  0  0  0  0
  -24.0241   -4.2403  -24.1289 N   0  0  0  0  0  0  0  0  0  0  0  0
  -25.6359   -6.2467  -23.3677 O   0  5  0  0  0  0  0  0  0  0  0  0
  -22.0551   -3.4099  -23.2287 O   0  0  0  0  0  0  0  0  0  0  0  0
  -26.9423   -4.7953  -22.1855 O   0  0  0  0  0  0  0  0  0  0  0  0
  -19.9191   -8.6409  -38.1436 O   0  0  0  0  0  0  0  0  0  0  0  0
  -19.8971   -2.8846  -31.9024 H   0  0  0  0  0  0  0  0  0  0  0  0
  -20.8464   -7.0834  -31.5937 H   0  0  0  0  0  0  0  0  0  0  0  0
  -18.9176   -3.2735  -34.1244 H   0  0  0  0  0  0  0  0  0  0  0  0
  -19.8654   -7.4645  -33.8167 H   0  0  0  0  0  0  0  0  0  0  0  0
  -16.0173   -6.8057  -26.4989 H   0  0  0  0  0  0  0  0  0  0  0  0
  -23.9901   -3.9534  -28.8504 H   0  0  0  0  0  0  0  0  0  0  0  0
  -20.0690   -4.5209  -24.5416 H   0  0  0  0  0  0  0  0  0  0  0  0
  -15.7005   -4.0821  -26.7018 H   0  0  0  0  0  0  0  0  0  0  0  0
  -17.1509   -7.4216  -36.6756 H   0  0  0  0  0  0  0  0  0  0  0  0
  -18.1603   -6.6022  -37.8848 H   0  0  0  0  0  0  0  0  0  0  0  0
  -20.5681   -6.1456  -37.3268 H   0  0  0  0  0  0  0  0  0  0  0  0
  -21.1819   -6.6579  -35.7411 H   0  0  0  0  0  0  0  0  0  0  0  0
  -17.9260   -8.9791  -38.4653 H   0  0  0  0  0  0  0  0  0  0  0  0
  -18.5168   -9.4900  -36.8783 H   0  0  0  0  0  0  0  0  0  0  0  0
  -20.8459   -9.0493  -36.3375 H   0  0  0  0  0  0  0  0  0  0  0  0
  -21.8377   -8.2394  -37.5568 H   0  0  0  0  0  0  0  0  0  0  0  0
  -23.2428   -3.2782  -31.7586 H   0  0  0  0  0  0  0  0  0  0  0  0
  -22.9094   -4.9756  -32.1817 H   0  0  0  0  0  0  0  0  0  0  0  0
  -24.2785   -4.5888  -31.1409 H   0  0  0  0  0  0  0  0  0  0  0  0
  -18.6537   -6.2490  -29.3102 H   0  0  0  0  0  0  0  0  0  0  0  0
  -18.4244   -4.7830  -30.2949 H   0  0  0  0  0  0  0  0  0  0  0  0
  -18.1714   -4.7114  -28.5519 H   0  0  0  0  0  0  0  0  0  0  0  0
  -19.1648   -7.7278  -25.4298 H   0  0  0  0  0  0  0  0  0  0  0  0
  -19.8995   -7.3840  -27.0152 H   0  0  0  0  0  0  0  0  0  0  0  0
  -18.4163   -8.3328  -26.9284 H   0  0  0  0  0  0  0  0  0  0  0  0
  -26.0847   -2.4778  -23.8249 H   0  0  0  0  0  0  0  0  0  0  0  0
  -25.9627   -2.3990  -22.0577 H   0  0  0  0  0  0  0  0  0  0  0  0
  -24.6021   -1.8827  -23.0580 H   0  0  0  0  0  0  0  0  0  0  0  0
  -19.0607   -4.8613  -36.1808 H   0  0  0  0  0  0  0  0  0  0  0  0
  -17.6351   -5.5839  -35.4343 H   0  0  0  0  0  0  0  0  0  0  0  0
  -24.1749   -4.1285  -22.0928 H   0  0  0  0  0  0  0  0  0  0  0  0
  -24.4883   -4.5873  -24.9619 H   0  0  0  0  0  0  0  0  0  0  0  0
  1  3  1  0  0  0  0
  1 10  2  0  0  0  0
  2  4  2  0  0  0  0
  2 10  1  0  0  0  0
  3 12  2  0  0  0  0
  4 12  1  0  0  0  0
  5  8  1  0  0  0  0
  5 18  2  0  0  0  0
  6 13  2  0  0  0  0
  6 15  1  0  0  0  0
  7 16  1  0  0  0  0
  7 17  2  0  0  0  0
  8 31  2  0  0  0  0
  9 14  1  0  0  0  0
  9 15  1  0  0  0  0
  9 16  2  0  0  0  0
 10 11  1  0  0  0  0
 11 13  1  0  0  0  0
 11 14  2  0  0  0  0
 12 29  1  0  0  0  0
 13 25  1  0  0  0  0
 14 26  1  0  0  0  0
 15 32  2  0  0  0  0
 16 33  1  0  0  0  0
 17 19  1  0  0  0  0
 17 32  1  0  0  0  0
 18 27  1  0  0  0  0
 18 33  1  0  0  0  0
 19 35  1  0  0  0  0
 19 37  2  0  0  0  0
 20 30  1  0  0  0  0
 20 36  1  0  0  0  0
 20 38  2  0  0  0  0
 21 23  1  0  0  0  0
 21 34  1  0  0  0  0
 22 24  1  0  0  0  0
 22 34  1  0  0  0  0
 23 39  1  0  0  0  0
 24 39  1  0  0  0  0
 28 30  1  0  0  0  0
 29 34  1  0  0  0  0
 30 35  1  0  0  0  0
 31 33  1  0  0  0  0
  1 40  1  0  0  0  0
  2 41  1  0  0  0  0
  3 42  1  0  0  0  0
  4 43  1  0  0  0  0
  5 44  1  0  0  0  0
  6 45  1  0  0  0  0
  7 46  1  0  0  0  0
  8 47  1  0  0  0  0
 21 48  1  0  0  0  0
 21 49  1  0  0  0  0
 22 50  1  0  0  0  0
 22 51  1  0  0  0  0
 23 52  1  0  0  0  0
 23 53  1  0  0  0  0
 24 54  1  0  0  0  0
 24 55  1  0  0  0  0
 25 56  1  0  0  0  0
 25 57  1  0  0  0  0
 25 58  1  0  0  0  0
 26 59  1  0  0  0  0
 26 60  1  0  0  0  0
 26 61  1  0  0  0  0
 27 62  1  0  0  0  0
 27 63  1  0  0  0  0
 27 64  1  0  0  0  0
 28 65  1  0  0  0  0
 28 66  1  0  0  0  0
 28 67  1  0  0  0  0
 29 68  1  0  0  0  0
 29 69  1  0  0  0  0
 30 70  1  0  0  0  0
 35 71  1  0  0  0  0
M  CHG  1  36  -1
M  END
> <SMILES>
C[C@H](NC(=O)c1cc(c2c(c(c(cc2n1)C)-c1ccc(cc1)CN1CCOCC1)C)-n1nccc1C)C(=O)O

> <FORMATTED_ID>
H3D-008252

> <MOLFORMULA>
C30H33N5O4

> <Exact Mass>
527.25

> <XLogP>
3.36

> <TPSA_NOPS>
109.6

> <s_m_source_file>
ligprep_h3d.sdf

> <i_m_source_file_index>
1190

> <i_lp_mmshare_version>
55123

> <i_f3d_flags>
0

> <s_epik_input>
W0NIM11jMVtjSF1bY0hdbm4xLWMyW2NIXWMoQyg9TylbTkhdW0NAQEhdKFtDSDNdKUMoPU8pW09IXSluYyhjMjMpW2NIXWMoW0NIM10pYyhjM1tDSDNdKS1jNFtjSF1bY0hdYyhbY0hdW2NIXTQpW0NIMl1ONVtDSDJdW0NIMl1PW0NIMl1bQ0gyXTU=

> <s_epik_cmdline>
J2VwaWtfcHl0aG9uJywgJy1waHQnLCAnMC41JywgJy1waCcsICc3LjUnLCAnLXRuJywgJzgnLCAnLW1hJywgJzUwMCcsICctaW1hZScsICc8aW5maWxlLm1hZT4nLCAnLW9tYWUnLCAnPG91dGZpbGUubWFlPic=

> <r_lp_tautomer_probability>
1

> <r_epik_Ionization_Penalty>
0.105619

> <r_epik_Ionization_Penalty_Charging>
5.90483e-05

> <r_epik_Ionization_Penalty_Neutral>
0.10556

> <r_epik_State_Penalty>
0.095414

> <r_epik_Charging_Adjusted_Penalty>
0.0954731

> <i_epik_Tot_Q>
-1

> <i_epik_Tot_abs_Q>
1

> <s_lp_Force_Field>
S-OPLS

> <r_lp_Energy>
74.5312

> <b_lp_Chiralities_Consistent>
1

> <s_lp_Variant>
ligprep_h3d.sdf:1190-1

> <ROCS_ShapeQuery>
_7L13

> <ROCS_TanimotoCombo>
0.779 

> <ROCS_ShapeTanimoto>
0.630 

> <ROCS_ColorTanimoto>
0.148 

> <ROCS_RefTversky>
0.804 

> <ROCS_RefColorTversky>
0.321 

> <ROCS_RefTverskyCombo>
1.125 

> <ROCS_FitTversky>
0.745 

> <ROCS_FitColorTversky>
0.216 

> <ROCS_FitTverskyCombo>
0.960 

> <ROCS_ColorScore>
-2.969

> <ROCS_Overlap>
1341.314

> <ROCS_Rank>
174                 

$$$$
ligprep_h3d.sdf:2659_1632
  -OEChem-08212117123D

 74 77  0     0  0  0  0  0  0999 V2000
  -17.8471   -4.4769  -24.7580 C   0  0  0  0  0  0  0  0  0  0  0  0
  -18.5525   -5.8358  -26.6270 C   0  0  0  0  0  0  0  0  0  0  0  0
  -16.9709   -5.4849  -24.3559 C   0  0  0  0  0  0  0  0  0  0  0  0
  -17.6762   -6.8438  -26.2249 C   0  0  0  0  0  0  0  0  0  0  0  0
  -22.6271   -3.5252  -32.5646 C   0  0  0  0  0  0  0  0  0  0  0  0
  -22.2488   -2.8462  -30.2771 C   0  0  0  0  0  0  0  0  0  0  0  0
  -24.0281   -4.9566  -24.9268 C   0  0  0  0  0  0  0  0  0  0  0  0
  -21.5487   -4.0116  -23.9030 C   0  0  0  0  0  0  0  0  0  0  0  0
  -18.6380   -4.6524  -25.8936 C   0  0  0  0  0  0  0  0  0  0  0  0
  -16.8854   -6.6683  -25.0893 C   0  0  0  0  0  0  0  0  0  0  0  0
  -22.7687   -2.5843  -31.5447 C   0  0  0  0  0  0  0  0  0  0  0  0
  -21.9658   -4.7281  -32.3169 C   0  0  0  0  0  0  0  0  0  0  0  0
  -22.9617   -4.6725  -25.7965 C   0  0  0  0  0  0  0  0  0  0  0  0
  -21.7594   -4.2113  -25.2677 C   0  0  0  0  0  0  0  0  0  0  0  0
  -21.5875   -4.0491  -30.0293 C   0  0  0  0  0  0  0  0  0  0  0  0
  -21.4460   -4.9901  -31.0493 C   0  0  0  0  0  0  0  0  0  0  0  0
  -23.8394   -4.7635  -23.5525 C   0  0  0  0  0  0  0  0  0  0  0  0
  -22.6208   -4.2992  -23.0519 C   0  0  0  0  0  0  0  0  0  0  0  0
  -21.6684   -4.3862  -27.4713 C   0  0  0  0  0  0  0  0  0  0  0  0
  -24.5737   -1.4742  -32.9068 C   0  0  0  0  0  0  0  0  0  0  0  0
  -22.4888   -0.1988  -32.3048 C   0  0  0  0  0  0  0  0  0  0  0  0
  -24.2158   -0.6734  -30.5804 C   0  0  0  0  0  0  0  0  0  0  0  0
  -18.8149   -6.7713  -35.5057 C   0  0  0  0  0  0  0  0  0  0  0  0
  -20.6568   -8.1600  -34.4876 C   0  0  0  0  0  0  0  0  0  0  0  0
  -21.2053   -6.4180  -36.2261 C   0  0  0  0  0  0  0  0  0  0  0  0
  -19.5833   -3.5652  -26.3284 C   0  0  0  0  0  0  0  0  0  0  0  0
  -21.8239   -5.7274  -33.4270 C   0  0  0  0  0  0  0  0  0  0  0  0
  -23.4778   -1.2995  -31.8100 C   0  0  0  0  0  0  0  0  0  0  0  0
  -15.9471   -7.7450  -24.6596 C   0  0  0  0  0  0  0  0  0  0  0  0
  -20.2797   -6.7993  -35.0717 C   0  0  0  0  0  0  0  0  0  0  0  0
  -22.8863   -4.7749  -27.1666 N   0  0  0  0  0  0  0  0  0  0  0  0
  -20.9508   -4.0366  -26.3614 N   0  0  0  0  0  0  0  0  0  0  0  0
  -21.0672   -4.3004  -28.7407 N   0  0  0  0  0  0  0  0  0  0  0  0
  -20.4539   -5.7770  -33.9925 N   0  3  0  0  0  0  0  0  0  0  0  0
  -20.8007   -6.1681  -30.8101 O   0  0  0  0  0  0  0  0  0  0  0  0
  -24.8437   -5.0296  -22.7058 F   0  0  0  0  0  0  0  0  0  0  0  0
  -22.4748   -4.1263  -21.7305 F   0  0  0  0  0  0  0  0  0  0  0  0
  -15.2371   -7.4355  -23.5343 F   0  0  0  0  0  0  0  0  0  0  0  0
  -16.5665   -8.9287  -24.3753 F   0  0  0  0  0  0  0  0  0  0  0  0
  -15.0142   -8.0392  -25.6115 F   0  0  0  0  0  0  0  0  0  0  0  0
  -17.9073   -3.5583  -24.1803 H   0  0  0  0  0  0  0  0  0  0  0  0
  -19.1640   -5.9801  -27.5139 H   0  0  0  0  0  0  0  0  0  0  0  0
  -16.3575   -5.3386  -23.4709 H   0  0  0  0  0  0  0  0  0  0  0  0
  -17.6157   -7.7628  -26.8019 H   0  0  0  0  0  0  0  0  0  0  0  0
  -23.0333   -3.3206  -33.5524 H   0  0  0  0  0  0  0  0  0  0  0  0
  -22.3610   -2.1113  -29.4830 H   0  0  0  0  0  0  0  0  0  0  0  0
  -24.9785   -5.3179  -25.3059 H   0  0  0  0  0  0  0  0  0  0  0  0
  -20.6036   -3.6513  -23.5129 H   0  0  0  0  0  0  0  0  0  0  0  0
  -25.1109   -0.5429  -33.1212 H   0  0  0  0  0  0  0  0  0  0  0  0
  -24.1430   -1.8201  -33.8529 H   0  0  0  0  0  0  0  0  0  0  0  0
  -25.3122   -2.2200  -32.5894 H   0  0  0  0  0  0  0  0  0  0  0  0
  -23.0061    0.7467  -32.5008 H   0  0  0  0  0  0  0  0  0  0  0  0
  -21.6952    0.0150  -31.5791 H   0  0  0  0  0  0  0  0  0  0  0  0
  -22.0099   -0.5119  -33.2401 H   0  0  0  0  0  0  0  0  0  0  0  0
  -24.7211    0.2686  -30.8254 H   0  0  0  0  0  0  0  0  0  0  0  0
  -24.9805   -1.3576  -30.1946 H   0  0  0  0  0  0  0  0  0  0  0  0
  -23.5096   -0.4583  -29.7699 H   0  0  0  0  0  0  0  0  0  0  0  0
  -18.5409   -5.7965  -35.9253 H   0  0  0  0  0  0  0  0  0  0  0  0
  -18.1516   -6.9652  -34.6554 H   0  0  0  0  0  0  0  0  0  0  0  0
  -18.6091   -7.5316  -36.2679 H   0  0  0  0  0  0  0  0  0  0  0  0
  -21.7071   -8.1838  -34.1752 H   0  0  0  0  0  0  0  0  0  0  0  0
  -20.0437   -8.4034  -33.6125 H   0  0  0  0  0  0  0  0  0  0  0  0
  -20.5120   -8.9562  -35.2264 H   0  0  0  0  0  0  0  0  0  0  0  0
  -22.2571   -6.4371  -35.9184 H   0  0  0  0  0  0  0  0  0  0  0  0
  -20.9833   -5.4077  -36.5876 H   0  0  0  0  0  0  0  0  0  0  0  0
  -21.0934   -7.1057  -37.0722 H   0  0  0  0  0  0  0  0  0  0  0  0
  -19.5337   -2.7034  -25.6519 H   0  0  0  0  0  0  0  0  0  0  0  0
  -19.3254   -3.1920  -27.3270 H   0  0  0  0  0  0  0  0  0  0  0  0
  -22.0581   -6.7398  -33.0808 H   0  0  0  0  0  0  0  0  0  0  0  0
  -22.4988   -5.4943  -34.2576 H   0  0  0  0  0  0  0  0  0  0  0  0
  -20.0628   -4.4467  -28.7311 H   0  0  0  0  0  0  0  0  0  0  0  0
  -20.2039   -4.8564  -34.3705 H   0  0  0  0  0  0  0  0  0  0  0  0
  -19.7796   -5.9728  -33.2442 H   0  0  0  0  0  0  0  0  0  0  0  0
  -20.4991   -6.2018  -29.8895 H   0  0  0  0  0  0  0  0  0  0  0  0
  1  3  1  0  0  0  0
  1  9  2  0  0  0  0
  2  4  2  0  0  0  0
  2  9  1  0  0  0  0
  3 10  2  0  0  0  0
  4 10  1  0  0  0  0
  5 11  1  0  0  0  0
  5 12  2  0  0  0  0
  6 11  2  0  0  0  0
  6 15  1  0  0  0  0
  7 13  2  0  0  0  0
  7 17  1  0  0  0  0
  8 14  2  0  0  0  0
  8 18  1  0  0  0  0
  9 26  1  0  0  0  0
 10 29  1  0  0  0  0
 11 28  1  0  0  0  0
 12 16  1  0  0  0  0
 12 27  1  0  0  0  0
 13 14  1  0  0  0  0
 13 31  1  0  0  0  0
 14 32  1  0  0  0  0
 15 16  2  0  0  0  0
 15 33  1  0  0  0  0
 16 35  1  0  0  0  0
 17 18  2  0  0  0  0
 17 36  1  0  0  0  0
 18 37  1  0  0  0  0
 19 31  2  0  0  0  0
 19 32  1  0  0  0  0
 19 33  1  0  0  0  0
 20 28  1  0  0  0  0
 21 28  1  0  0  0  0
 22 28  1  0  0  0  0
 23 30  1  0  0  0  0
 24 30  1  0  0  0  0
 25 30  1  0  0  0  0
 26 32  1  0  0  0  0
 27 34  1  0  0  0  0
 29 38  1  0  0  0  0
 29 39  1  0  0  0  0
 29 40  1  0  0  0  0
 30 34  1  0  0  0  0
  1 41  1  0  0  0  0
  2 42  1  0  0  0  0
  3 43  1  0  0  0  0
  4 44  1  0  0  0  0
  5 45  1  0  0  0  0
  6 46  1  0  0  0  0
  7 47  1  0  0  0  0
  8 48  1  0  0  0  0
 20 49  1  0  0  0  0
 20 50  1  0  0  0  0
 20 51  1  0  0  0  0
 21 52  1  0  0  0  0
 21 53  1  0  0  0  0
 21 54  1  0  0  0  0
 22 55  1  0  0  0  0
 22 56  1  0  0  0  0
 22 57  1  0  0  0  0
 23 58  1  0  0  0  0
 23 59  1  0  0  0  0
 23 60  1  0  0  0  0
 24 61  1  0  0  0  0
 24 62  1  0  0  0  0
 24 63  1  0  0  0  0
 25 64  1  0  0  0  0
 25 65  1  0  0  0  0
 25 66  1  0  0  0  0
 26 67  1  0  0  0  0
 26 68  1  0  0  0  0
 27 69  1  0  0  0  0
 27 70  1  0  0  0  0
 33 71  1  0  0  0  0
 34 72  1  0  0  0  0
 34 73  1  0  0  0  0
 35 74  1  0  0  0  0
M  CHG  1  34   1
M  END
> <SMILES>
CC(C)(C)NCc1cc(cc(c1O)Nc1nc2cc(c(cc2n1Cc1ccc(cc1)C(F)(F)F)F)F)C(C)(C)C

> <FORMATTED_ID>
H3D-007347

> <MOLFORMULA>
C30H33F5N4O

> <Exact Mass>
560.26

> <XLogP>
10.16

> <TPSA_NOPS>
62.1

> <s_m_source_file>
ligprep_h3d.sdf

> <i_m_source_file_index>
2659

> <i_lp_mmshare_version>
55123

> <i_f3d_flags>
0

> <s_epik_input>
W0NIM11DKFtDSDNdKShbQ0gzXSlbTkhdW0NIMl1jMVtjSF1jKEMoW0NIM10pKFtDSDNdKVtDSDNdKVtjSF1jKGMxW09IXSlbTkhdYyhuMiluKGMoYzIzKVtjSF1jKEYpYyhGKVtjSF0zKVtDSDJdYzRbY0hdW2NIXWMoQyhGKShGKUYpW2NIXVtjSF00

> <s_epik_cmdline>
J2VwaWtfcHl0aG9uJywgJy1waHQnLCAnMC41JywgJy1waCcsICc3LjUnLCAnLXRuJywgJzgnLCAnLW1hJywgJzUwMCcsICctaW1hZScsICc8aW5maWxlLm1hZT4nLCAnLW9tYWUnLCAnPG91dGZpbGUubWFlPic=

> <r_epik_Ionization_Penalty>
0.0343046

> <r_epik_Ionization_Penalty_Charging>
0.0119739

> <r_epik_Ionization_Penalty_Neutral>
0.0223306

> <r_epik_State_Penalty>
0.0220284

> <r_epik_Charging_Adjusted_Penalty>
0.0340023

> <i_epik_Tot_Q>
1

> <i_epik_Tot_abs_Q>
1

> <s_lp_Force_Field>
S-OPLS

> <r_lp_Energy>
45.7249

> <b_lp_Chiralities_Consistent>
1

> <s_lp_Variant>
ligprep_h3d.sdf:2659-1

> <ROCS_ShapeQuery>
_7L13

> <ROCS_TanimotoCombo>
0.700 

> <ROCS_ShapeTanimoto>
0.626 

> <ROCS_ColorTanimoto>
0.074 

> <ROCS_RefTversky>
0.804 

> <ROCS_RefColorTversky>
0.157 

> <ROCS_RefTverskyCombo>
0.961 

> <ROCS_FitTversky>
0.739 

> <ROCS_FitColorTversky>
0.121 

> <ROCS_FitTverskyCombo>
0.861 

> <ROCS_ColorScore>
-1.440

> <ROCS_Overlap>
1341.818

> <ROCS_Rank>
175                 

$$$$
ligprep_h3d.sdf:5325_1578
  -OEChem-08212117123D

 72 77  0     0  0  0  0  0  0999 V2000
  -18.7888   -6.9617  -35.4330 C   0  0  0  0  0  0  0  0  0  0  0  0
  -19.8840   -7.7175  -35.0149 C   0  0  0  0  0  0  0  0  0  0  0  0
  -18.5840   -5.6836  -34.9129 C   0  0  0  0  0  0  0  0  0  0  0  0
  -20.7745   -7.1953  -34.0769 C   0  0  0  0  0  0  0  0  0  0  0  0
  -19.4745   -5.1615  -33.9748 C   0  0  0  0  0  0  0  0  0  0  0  0
  -23.0333   -3.8464  -28.8230 C   0  0  0  0  0  0  0  0  0  0  0  0
  -20.3996   -4.6900  -29.3566 C   0  0  0  0  0  0  0  0  0  0  0  0
  -14.5236   -5.6757  -25.6641 C   0  0  0  0  0  0  0  0  0  0  0  0
  -15.0351   -6.7364  -26.3739 C   0  0  0  0  0  0  0  0  0  0  0  0
  -22.1619   -4.1675  -27.7891 C   0  0  0  0  0  0  0  0  0  0  0  0
  -20.5698   -5.9173  -33.5568 C   0  0  0  0  0  0  0  0  0  0  0  0
  -20.8504   -4.5860  -28.0456 C   0  0  0  0  0  0  0  0  0  0  0  0
  -22.5766   -3.9428  -30.1368 C   0  0  0  0  0  0  0  0  0  0  0  0
  -21.2680   -4.3632  -30.4019 C   0  0  0  0  0  0  0  0  0  0  0  0
  -16.5771   -5.1865  -25.9996 C   0  0  0  0  0  0  0  0  0  0  0  0
  -17.8943   -4.6497  -26.0972 C   0  0  0  0  0  0  0  0  0  0  0  0
  -18.5739   -6.6316  -27.3420 C   0  0  0  0  0  0  0  0  0  0  0  0
  -17.3360   -7.1440  -27.2551 C   0  0  0  0  0  0  0  0  0  0  0  0
  -18.8743   -5.3279  -26.7397 C   0  0  0  0  0  0  0  0  0  0  0  0
  -23.3805   -2.9005  -24.3132 C   0  0  0  0  0  0  0  0  0  0  0  0
  -23.7696   -5.3976  -24.4734 C   0  0  0  0  0  0  0  0  0  0  0  0
  -23.0257   -2.8552  -25.8004 C   0  0  0  0  0  0  0  0  0  0  0  0
  -23.3739   -5.3656  -25.9525 C   0  0  0  0  0  0  0  0  0  0  0  0
  -20.9915   -4.4183  -25.7486 C   0  0  0  0  0  0  0  0  0  0  0  0
  -24.3364   -4.0541  -24.0248 C   0  0  0  0  0  0  0  0  0  0  0  0
  -22.4354   -4.1882  -26.3032 C   0  0  0  0  0  0  0  0  0  0  0  0
  -23.4249   -2.2753  -31.6050 C   0  0  0  0  0  0  0  0  0  0  0  0
  -21.5275   -5.3548  -32.5479 C   0  0  0  0  0  0  0  0  0  0  0  0
  -25.8633   -4.7966  -22.1930 C   0  0  0  0  0  0  0  0  0  0  0  0
  -26.0023   -4.8132  -20.6835 C   0  0  0  0  0  0  0  0  0  0  0  0
  -15.4813   -4.7205  -25.4356 N   0  0  0  0  0  0  0  0  0  0  0  0
  -16.3525   -6.4239  -26.5896 N   0  0  0  0  0  0  0  0  0  0  0  0
  -20.1414   -4.8615  -26.8604 N   0  0  0  0  0  0  0  0  0  0  0  0
  -24.5986   -4.1073  -22.5619 N   0  3  0  0  0  0  0  0  0  0  0  0
  -26.0640   -3.4792  -20.1965 O   0  0  0  0  0  0  0  0  0  0  0  0
  -23.4203   -3.6302  -31.1607 O   0  0  0  0  0  0  0  0  0  0  0  0
  -20.8256   -4.4601  -31.6883 O   0  0  0  0  0  0  0  0  0  0  0  0
  -18.0947   -7.3689  -36.1623 H   0  0  0  0  0  0  0  0  0  0  0  0
  -20.0430   -8.7130  -35.4190 H   0  0  0  0  0  0  0  0  0  0  0  0
  -17.7308   -5.0953  -35.2373 H   0  0  0  0  0  0  0  0  0  0  0  0
  -21.6253   -7.7913  -33.7572 H   0  0  0  0  0  0  0  0  0  0  0  0
  -19.3071   -4.1648  -33.5752 H   0  0  0  0  0  0  0  0  0  0  0  0
  -24.0528   -3.5367  -28.6164 H   0  0  0  0  0  0  0  0  0  0  0  0
  -19.3882   -5.0133  -29.5821 H   0  0  0  0  0  0  0  0  0  0  0  0
  -13.5121   -5.5521  -25.3058 H   0  0  0  0  0  0  0  0  0  0  0  0
  -14.5912   -7.6548  -26.7328 H   0  0  0  0  0  0  0  0  0  0  0  0
  -18.0905   -3.6836  -25.6424 H   0  0  0  0  0  0  0  0  0  0  0  0
  -19.3610   -7.1727  -27.8562 H   0  0  0  0  0  0  0  0  0  0  0  0
  -17.0651   -8.1014  -27.6835 H   0  0  0  0  0  0  0  0  0  0  0  0
  -22.4633   -3.0042  -23.7202 H   0  0  0  0  0  0  0  0  0  0  0  0
  -23.8414   -1.9479  -24.0254 H   0  0  0  0  0  0  0  0  0  0  0  0
  -24.5130   -6.1893  -24.3197 H   0  0  0  0  0  0  0  0  0  0  0  0
  -22.8969   -5.6647  -23.8655 H   0  0  0  0  0  0  0  0  0  0  0  0
  -23.9366   -2.6108  -26.3627 H   0  0  0  0  0  0  0  0  0  0  0  0
  -22.3277   -2.0283  -25.9842 H   0  0  0  0  0  0  0  0  0  0  0  0
  -22.9110   -6.3240  -26.2220 H   0  0  0  0  0  0  0  0  0  0  0  0
  -24.2930   -5.2951  -26.5502 H   0  0  0  0  0  0  0  0  0  0  0  0
  -20.5733   -3.4845  -25.3496 H   0  0  0  0  0  0  0  0  0  0  0  0
  -20.9715   -5.1520  -24.9352 H   0  0  0  0  0  0  0  0  0  0  0  0
  -25.3071   -3.8726  -24.5005 H   0  0  0  0  0  0  0  0  0  0  0  0
  -24.1399   -2.1619  -32.4235 H   0  0  0  0  0  0  0  0  0  0  0  0
  -22.4227   -1.9979  -31.9414 H   0  0  0  0  0  0  0  0  0  0  0  0
  -23.7201   -1.6298  -30.7744 H   0  0  0  0  0  0  0  0  0  0  0  0
  -22.3415   -4.8121  -33.0405 H   0  0  0  0  0  0  0  0  0  0  0  0
  -21.9723   -6.1555  -31.9471 H   0  0  0  0  0  0  0  0  0  0  0  0
  -26.6707   -4.2381  -22.6750 H   0  0  0  0  0  0  0  0  0  0  0  0
  -25.8013   -5.8074  -22.6046 H   0  0  0  0  0  0  0  0  0  0  0  0
  -26.9310   -5.3189  -20.4013 H   0  0  0  0  0  0  0  0  0  0  0  0
  -25.1624   -5.3280  -20.2057 H   0  0  0  0  0  0  0  0  0  0  0  0
  -23.8104   -4.5765  -22.0952 H   0  0  0  0  0  0  0  0  0  0  0  0
  -24.6152   -3.1487  -22.1876 H   0  0  0  0  0  0  0  0  0  0  0  0
  -26.1522   -3.5373  -19.2314 H   0  0  0  0  0  0  0  0  0  0  0  0
  1  2  2  0  0  0  0
  1  3  1  0  0  0  0
  2  4  1  0  0  0  0
  3  5  2  0  0  0  0
  4 11  2  0  0  0  0
  5 11  1  0  0  0  0
  6 10  1  0  0  0  0
  6 13  2  0  0  0  0
  7 12  1  0  0  0  0
  7 14  2  0  0  0  0
  8  9  2  0  0  0  0
  8 31  1  0  0  0  0
  9 32  1  0  0  0  0
 10 12  2  0  0  0  0
 10 26  1  0  0  0  0
 11 28  1  0  0  0  0
 12 33  1  0  0  0  0
 13 14  1  0  0  0  0
 13 36  1  0  0  0  0
 14 37  1  0  0  0  0
 15 16  1  0  0  0  0
 15 31  2  0  0  0  0
 15 32  1  0  0  0  0
 16 19  2  0  0  0  0
 17 18  2  0  0  0  0
 17 19  1  0  0  0  0
 18 32  1  0  0  0  0
 19 33  1  0  0  0  0
 20 22  1  0  0  0  0
 20 25  1  0  0  0  0
 21 23  1  0  0  0  0
 21 25  1  0  0  0  0
 22 26  1  0  0  0  0
 23 26  1  0  0  0  0
 24 26  1  0  0  0  0
 24 33  1  0  0  0  0
 25 34  1  0  0  0  0
 27 36  1  0  0  0  0
 28 37  1  0  0  0  0
 29 30  1  0  0  0  0
 29 34  1  0  0  0  0
 30 35  1  0  0  0  0
  1 38  1  0  0  0  0
  2 39  1  0  0  0  0
  3 40  1  0  0  0  0
  4 41  1  0  0  0  0
  5 42  1  0  0  0  0
  6 43  1  0  0  0  0
  7 44  1  0  0  0  0
  8 45  1  0  0  0  0
  9 46  1  0  0  0  0
 16 47  1  0  0  0  0
 17 48  1  0  0  0  0
 18 49  1  0  0  0  0
 20 50  1  0  0  0  0
 20 51  1  0  0  0  0
 21 52  1  0  0  0  0
 21 53  1  0  0  0  0
 22 54  1  0  0  0  0
 22 55  1  0  0  0  0
 23 56  1  0  0  0  0
 23 57  1  0  0  0  0
 24 58  1  0  0  0  0
 24 59  1  0  0  0  0
 25 60  1  0  0  0  0
 27 61  1  0  0  0  0
 27 62  1  0  0  0  0
 27 63  1  0  0  0  0
 28 64  1  0  0  0  0
 28 65  1  0  0  0  0
 29 66  1  0  0  0  0
 29 67  1  0  0  0  0
 30 68  1  0  0  0  0
 30 69  1  0  0  0  0
 34 70  1  0  0  0  0
 34 71  1  0  0  0  0
 35 72  1  0  0  0  0
M  CHG  1  34   1
M  END
> <SMILES>
COc1cc2c(cc1OCc1ccccc1)N(CC12CCC(CC1)NCCO)c1ccn2ccnc2c1

> <FORMATTED_ID>
H3D-014893

> <MOLFORMULA>
C30H34N4O3

> <Exact Mass>
498.26

> <XLogP>
5.93

> <TPSA_NOPS>
71.3

> <s_m_source_file>
ligprep_h3d.sdf

> <i_m_source_file_index>
5325

> <i_lp_mmshare_version>
55123

> <i_f3d_flags>
0

> <s_epik_input>
W2NIXTFbY0hdW2NIXVtjSF1bY0hdYzFbQ0gyXU9jKGMoW2NIXTIpT1tDSDNdKVtjSF1jKE4oW0NIMl0zKWMoW2NIXVtjSF00KVtjSF1jKG40NSluW2NIXVtjSF01KWMyW0NAXTM2W0NIMl1bQ0gyXVtDQEhdKFtDSDJdW0NIMl02KVtOSF1bQ0gyXVtDSDJdW09IXQ==

> <s_epik_cmdline>
J2VwaWtfcHl0aG9uJywgJy1waHQnLCAnMC41JywgJy1waCcsICc3LjUnLCAnLXRuJywgJzgnLCAnLW1hJywgJzUwMCcsICctaW1hZScsICc8aW5maWxlLm1hZT4nLCAnLW9tYWUnLCAnPG91dGZpbGUubWFlPic=

> <r_lp_tautomer_probability>
1

> <r_epik_Ionization_Penalty>
0.499349

> <r_epik_Ionization_Penalty_Charging>
0.499348

> <r_epik_Ionization_Penalty_Neutral>
1.38211e-06

> <r_epik_State_Penalty>
0.49875

> <r_epik_Charging_Adjusted_Penalty>
0.998098

> <i_epik_Tot_Q>
1

> <i_epik_Tot_abs_Q>
1

> <s_lp_Force_Field>
S-OPLS

> <r_lp_Energy>
70.2076

> <b_lp_Chiralities_Consistent>
1

> <s_lp_Variant>
ligprep_h3d.sdf:5325-2

> <ROCS_ShapeQuery>
_7L13

> <ROCS_TanimotoCombo>
0.760 

> <ROCS_ShapeTanimoto>
0.659 

> <ROCS_ColorTanimoto>
0.102 

> <ROCS_RefTversky>
0.804 

> <ROCS_RefColorTversky>
0.221 

> <ROCS_RefTverskyCombo>
1.025 

> <ROCS_FitTversky>
0.785 

> <ROCS_FitColorTversky>
0.158 

> <ROCS_FitTverskyCombo>
0.943 

> <ROCS_ColorScore>
-2.034

> <ROCS_Overlap>
1337.063

> <ROCS_Rank>
176                 

$$$$
ligprep_h3d.sdf:5316_1894
  -OEChem-08212117123D

 72 77  0     0  0  0  0  0  0999 V2000
  -19.4400   -6.2872  -36.2610 C   0  0  0  0  0  0  0  0  0  0  0  0
  -20.4161   -6.8665  -35.4503 C   0  0  0  0  0  0  0  0  0  0  0  0
  -18.4343   -5.5059  -35.6919 C   0  0  0  0  0  0  0  0  0  0  0  0
  -20.3866   -6.6644  -34.0705 C   0  0  0  0  0  0  0  0  0  0  0  0
  -18.4049   -5.3039  -34.3120 C   0  0  0  0  0  0  0  0  0  0  0  0
  -22.7002   -4.3066  -29.1045 C   0  0  0  0  0  0  0  0  0  0  0  0
  -19.8960   -4.5351  -29.3302 C   0  0  0  0  0  0  0  0  0  0  0  0
  -14.6560   -6.1836  -25.0482 C   0  0  0  0  0  0  0  0  0  0  0  0
  -14.5968   -4.9986  -25.7431 C   0  0  0  0  0  0  0  0  0  0  0  0
  -21.9021   -4.3795  -27.9694 C   0  0  0  0  0  0  0  0  0  0  0  0
  -19.3810   -5.8831  -33.5013 C   0  0  0  0  0  0  0  0  0  0  0  0
  -20.5157   -4.4924  -28.0897 C   0  0  0  0  0  0  0  0  0  0  0  0
  -22.0901   -4.3485  -30.3597 C   0  0  0  0  0  0  0  0  0  0  0  0
  -20.6974   -4.4619  -30.4713 C   0  0  0  0  0  0  0  0  0  0  0  0
  -16.6752   -5.7613  -25.6076 C   0  0  0  0  0  0  0  0  0  0  0  0
  -18.0766   -5.6936  -25.8615 C   0  0  0  0  0  0  0  0  0  0  0  0
  -17.7255   -3.5977  -27.0545 C   0  0  0  0  0  0  0  0  0  0  0  0
  -16.4049   -3.6535  -26.8193 C   0  0  0  0  0  0  0  0  0  0  0  0
  -18.6068   -4.6599  -26.5569 C   0  0  0  0  0  0  0  0  0  0  0  0
  -23.2500   -5.5506  -26.1876 C   0  0  0  0  0  0  0  0  0  0  0  0
  -23.0486   -3.0322  -26.1709 C   0  0  0  0  0  0  0  0  0  0  0  0
  -20.9639   -4.4688  -25.7910 C   0  0  0  0  0  0  0  0  0  0  0  0
  -23.7802   -5.5086  -24.7589 C   0  0  0  0  0  0  0  0  0  0  0  0
  -23.5801   -3.0083  -24.7423 C   0  0  0  0  0  0  0  0  0  0  0  0
  -22.3374   -4.3541  -26.5178 C   0  0  0  0  0  0  0  0  0  0  0  0
  -23.1293   -2.9762  -32.0007 C   0  0  0  0  0  0  0  0  0  0  0  0
  -28.1013   -5.8126  -21.8236 C   0  0  0  0  0  0  0  0  0  0  0  0
  -19.3488   -5.6651  -32.0171 C   0  0  0  0  0  0  0  0  0  0  0  0
  -25.1369   -4.1524  -23.1681 C   0  0  0  0  0  0  0  0  0  0  0  0
  -26.4675   -4.8763  -23.2296 C   0  0  0  0  0  0  0  0  0  0  0  0
  -15.9434   -6.6504  -24.9675 N   0  0  0  0  0  0  0  0  0  0  0  0
  -15.8916   -4.7266  -26.1027 N   0  0  0  0  0  0  0  0  0  0  0  0
  -19.9248   -4.5494  -26.8232 N   0  0  0  0  0  0  0  0  0  0  0  0
  -24.4851   -4.1956  -24.5230 N   0  3  0  0  0  0  0  0  0  0  0  0
  -22.8653   -4.2765  -31.4789 O   0  0  0  0  0  0  0  0  0  0  0  0
  -20.1091   -4.5014  -31.7011 O   0  0  0  0  0  0  0  0  0  0  0  0
  -27.1055   -4.8081  -21.9612 O   0  0  0  0  0  0  0  0  0  0  0  0
  -19.4624   -6.4458  -37.3352 H   0  0  0  0  0  0  0  0  0  0  0  0
  -21.1986   -7.4758  -35.8931 H   0  0  0  0  0  0  0  0  0  0  0  0
  -17.6736   -5.0557  -36.3226 H   0  0  0  0  0  0  0  0  0  0  0  0
  -21.1514   -7.1196  -33.4466 H   0  0  0  0  0  0  0  0  0  0  0  0
  -17.6176   -4.6935  -33.8774 H   0  0  0  0  0  0  0  0  0  0  0  0
  -23.7790   -4.2187  -29.0205 H   0  0  0  0  0  0  0  0  0  0  0  0
  -18.8195   -4.6219  -29.4307 H   0  0  0  0  0  0  0  0  0  0  0  0
  -13.8347   -6.7244  -24.6013 H   0  0  0  0  0  0  0  0  0  0  0  0
  -13.7741   -4.3469  -26.0035 H   0  0  0  0  0  0  0  0  0  0  0  0
  -18.7066   -6.4927  -25.4830 H   0  0  0  0  0  0  0  0  0  0  0  0
  -18.1531   -2.7707  -27.6113 H   0  0  0  0  0  0  0  0  0  0  0  0
  -15.7141   -2.8941  -27.1650 H   0  0  0  0  0  0  0  0  0  0  0  0
  -22.7167   -6.4970  -26.3468 H   0  0  0  0  0  0  0  0  0  0  0  0
  -24.1067   -5.5719  -26.8747 H   0  0  0  0  0  0  0  0  0  0  0  0
  -23.8905   -2.8659  -26.8567 H   0  0  0  0  0  0  0  0  0  0  0  0
  -22.3717   -2.1805  -26.3182 H   0  0  0  0  0  0  0  0  0  0  0  0
  -20.7697   -3.6011  -25.1488 H   0  0  0  0  0  0  0  0  0  0  0  0
  -20.9132   -5.3612  -25.1554 H   0  0  0  0  0  0  0  0  0  0  0  0
  -24.5136   -6.3065  -24.6012 H   0  0  0  0  0  0  0  0  0  0  0  0
  -22.9833   -5.5981  -24.0135 H   0  0  0  0  0  0  0  0  0  0  0  0
  -22.7796   -3.0568  -23.9967 H   0  0  0  0  0  0  0  0  0  0  0  0
  -24.1773   -2.1062  -24.5730 H   0  0  0  0  0  0  0  0  0  0  0  0
  -23.7570   -3.0606  -32.8911 H   0  0  0  0  0  0  0  0  0  0  0  0
  -22.1859   -2.4850  -32.2521 H   0  0  0  0  0  0  0  0  0  0  0  0
  -23.6530   -2.3887  -31.2428 H   0  0  0  0  0  0  0  0  0  0  0  0
  -28.5694   -5.7303  -20.8397 H   0  0  0  0  0  0  0  0  0  0  0  0
  -27.6442   -6.7985  -21.9402 H   0  0  0  0  0  0  0  0  0  0  0  0
  -28.8589   -5.6706  -22.5980 H   0  0  0  0  0  0  0  0  0  0  0  0
  -19.7728   -6.5240  -31.4857 H   0  0  0  0  0  0  0  0  0  0  0  0
  -18.3198   -5.5278  -31.6676 H   0  0  0  0  0  0  0  0  0  0  0  0
  -24.4392   -4.6308  -22.4749 H   0  0  0  0  0  0  0  0  0  0  0  0
  -25.2623   -3.0966  -22.9138 H   0  0  0  0  0  0  0  0  0  0  0  0
  -27.1204   -4.3921  -23.9624 H   0  0  0  0  0  0  0  0  0  0  0  0
  -26.3434   -5.9275  -23.5095 H   0  0  0  0  0  0  0  0  0  0  0  0
  -25.2465   -4.1300  -25.2126 H   0  0  0  0  0  0  0  0  0  0  0  0
  1  2  2  0  0  0  0
  1  3  1  0  0  0  0
  2  4  1  0  0  0  0
  3  5  2  0  0  0  0
  4 11  2  0  0  0  0
  5 11  1  0  0  0  0
  6 10  2  0  0  0  0
  6 13  1  0  0  0  0
  7 12  2  0  0  0  0
  7 14  1  0  0  0  0
  8  9  2  0  0  0  0
  8 31  1  0  0  0  0
  9 32  1  0  0  0  0
 10 12  1  0  0  0  0
 10 25  1  0  0  0  0
 11 28  1  0  0  0  0
 12 33  1  0  0  0  0
 13 14  2  0  0  0  0
 13 35  1  0  0  0  0
 14 36  1  0  0  0  0
 15 16  1  0  0  0  0
 15 31  2  0  0  0  0
 15 32  1  0  0  0  0
 16 19  2  0  0  0  0
 17 18  2  0  0  0  0
 17 19  1  0  0  0  0
 18 32  1  0  0  0  0
 19 33  1  0  0  0  0
 20 23  1  0  0  0  0
 20 25  1  0  0  0  0
 21 24  1  0  0  0  0
 21 25  1  0  0  0  0
 22 25  1  0  0  0  0
 22 33  1  0  0  0  0
 23 34  1  0  0  0  0
 24 34  1  0  0  0  0
 26 35  1  0  0  0  0
 27 37  1  0  0  0  0
 28 36  1  0  0  0  0
 29 30  1  0  0  0  0
 29 34  1  0  0  0  0
 30 37  1  0  0  0  0
  1 38  1  0  0  0  0
  2 39  1  0  0  0  0
  3 40  1  0  0  0  0
  4 41  1  0  0  0  0
  5 42  1  0  0  0  0
  6 43  1  0  0  0  0
  7 44  1  0  0  0  0
  8 45  1  0  0  0  0
  9 46  1  0  0  0  0
 16 47  1  0  0  0  0
 17 48  1  0  0  0  0
 18 49  1  0  0  0  0
 20 50  1  0  0  0  0
 20 51  1  0  0  0  0
 21 52  1  0  0  0  0
 21 53  1  0  0  0  0
 22 54  1  0  0  0  0
 22 55  1  0  0  0  0
 23 56  1  0  0  0  0
 23 57  1  0  0  0  0
 24 58  1  0  0  0  0
 24 59  1  0  0  0  0
 26 60  1  0  0  0  0
 26 61  1  0  0  0  0
 26 62  1  0  0  0  0
 27 63  1  0  0  0  0
 27 64  1  0  0  0  0
 27 65  1  0  0  0  0
 28 66  1  0  0  0  0
 28 67  1  0  0  0  0
 29 68  1  0  0  0  0
 29 69  1  0  0  0  0
 30 70  1  0  0  0  0
 30 71  1  0  0  0  0
 34 72  1  0  0  0  0
M  CHG  1  34   1
M  END
> <SMILES>
COCCN1CCC2(CC1)CN(c1ccn3ccnc3c1)c1cc(c(cc12)OC)OCc1ccccc1

> <FORMATTED_ID>
H3D-014364

> <MOLFORMULA>
C30H34N4O3

> <Exact Mass>
498.26

> <XLogP>
5.96

> <TPSA_NOPS>
51.5

> <s_m_source_file>
ligprep_h3d.sdf

> <i_m_source_file_index>
5316

> <i_lp_mmshare_version>
55123

> <i_f3d_flags>
0

> <s_epik_input>
W0NIM11PW0NIMl1bQ0gyXU4oW0NIMl1bQ0gyXTEpW0NIMl1bQ0gyXUMxMmMzYyhOKFtDSDJdMiljKFtjSF1bY0hdNClbY0hdYyhuNDUpbltjSF1bY0hdNSlbY0hdYyhjKFtjSF0zKU9bQ0gzXSlPW0NIMl1jNltjSF1bY0hdW2NIXVtjSF1bY0hdNg==

> <s_epik_cmdline>
J2VwaWtfcHl0aG9uJywgJy1waHQnLCAnMC41JywgJy1waCcsICc3LjUnLCAnLXRuJywgJzgnLCAnLW1hJywgJzUwMCcsICctaW1hZScsICc8aW5maWxlLm1hZT4nLCAnLW9tYWUnLCAnPG91dGZpbGUubWFlPic=

> <r_lp_tautomer_probability>
1

> <r_epik_Ionization_Penalty>
0.480734

> <r_epik_Ionization_Penalty_Charging>
0.480734

> <r_epik_Ionization_Penalty_Neutral>
2.9592e-10

> <r_epik_State_Penalty>
0.502034

> <r_epik_Charging_Adjusted_Penalty>
0.982768

> <i_epik_Tot_Q>
1

> <i_epik_Tot_abs_Q>
1

> <s_lp_Force_Field>
S-OPLS

> <r_lp_Energy>
74.2009

> <b_lp_Chiralities_Consistent>
1

> <s_lp_Variant>
ligprep_h3d.sdf:5316-2

> <ROCS_ShapeQuery>
_7L13

> <ROCS_TanimotoCombo>
0.750 

> <ROCS_ShapeTanimoto>
0.657 

> <ROCS_ColorTanimoto>
0.093 

> <ROCS_RefTversky>
0.804 

> <ROCS_RefColorTversky>
0.196 

> <ROCS_RefTverskyCombo>
1.000 

> <ROCS_FitTversky>
0.783 

> <ROCS_FitColorTversky>
0.151 

> <ROCS_FitTverskyCombo>
0.933 

> <ROCS_ColorScore>
-1.790

> <ROCS_Overlap>
1337.226

> <ROCS_Rank>
177                 

$$$$
ligprep_h3d.sdf:5136_1476
  -OEChem-08212117123D

 70 75  0     0  0  0  0  0  0999 V2000
  -19.5121   -6.1383  -36.2985 C   0  0  0  0  0  0  0  0  0  0  0  0
  -19.4183   -7.2502  -35.4615 C   0  0  0  0  0  0  0  0  0  0  0  0
  -19.5681   -4.8564  -35.7516 C   0  0  0  0  0  0  0  0  0  0  0  0
  -19.3806   -7.0801  -34.0776 C   0  0  0  0  0  0  0  0  0  0  0  0
  -19.5303   -4.6863  -34.3676 C   0  0  0  0  0  0  0  0  0  0  0  0
  -22.7089   -4.2439  -29.0910 C   0  0  0  0  0  0  0  0  0  0  0  0
  -19.9113   -4.5328  -29.3290 C   0  0  0  0  0  0  0  0  0  0  0  0
  -14.5450   -5.0767  -25.8273 C   0  0  0  0  0  0  0  0  0  0  0  0
  -14.5358   -6.2674  -25.1492 C   0  0  0  0  0  0  0  0  0  0  0  0
  -21.9105   -4.3609  -27.9599 C   0  0  0  0  0  0  0  0  0  0  0  0
  -19.4366   -5.7982  -33.5306 C   0  0  0  0  0  0  0  0  0  0  0  0
  -20.5273   -4.5036  -28.0862 C   0  0  0  0  0  0  0  0  0  0  0  0
  -22.1025   -4.2717  -30.3484 C   0  0  0  0  0  0  0  0  0  0  0  0
  -20.7131   -4.4152  -30.4661 C   0  0  0  0  0  0  0  0  0  0  0  0
  -16.6311   -5.8167  -25.6890 C   0  0  0  0  0  0  0  0  0  0  0  0
  -18.1045   -5.8051  -25.8943 C   0  0  0  0  0  0  0  0  0  0  0  0
  -17.7008   -3.6998  -27.0353 C   0  0  0  0  0  0  0  0  0  0  0  0
  -16.3696   -3.7353  -26.8360 C   0  0  0  0  0  0  0  0  0  0  0  0
  -18.6198   -4.7502  -26.5625 C   0  0  0  0  0  0  0  0  0  0  0  0
  -23.2818   -5.5400  -26.2014 C   0  0  0  0  0  0  0  0  0  0  0  0
  -23.0215   -3.0280  -26.1286 C   0  0  0  0  0  0  0  0  0  0  0  0
  -20.9703   -4.5212  -25.7864 C   0  0  0  0  0  0  0  0  0  0  0  0
  -23.8081   -5.5179  -24.7708 C   0  0  0  0  0  0  0  0  0  0  0  0
  -23.5493   -3.0239  -24.6985 C   0  0  0  0  0  0  0  0  0  0  0  0
  -22.3421   -4.3580  -26.5070 C   0  0  0  0  0  0  0  0  0  0  0  0
  -23.1126   -2.8388  -31.9554 C   0  0  0  0  0  0  0  0  0  0  0  0
  -19.3963   -5.6145  -32.0419 C   0  0  0  0  0  0  0  0  0  0  0  0
  -25.1294   -4.1664  -23.1464 C   0  0  0  0  0  0  0  0  0  0  0  0
  -26.4767   -4.8574  -23.2208 C   0  0  0  0  0  0  0  0  0  0  0  0
  -15.8594   -4.8162  -26.1533 N   0  0  0  0  0  0  0  0  0  0  0  0
  -15.8389   -6.7021  -25.0789 N   0  3  0  0  0  0  0  0  0  0  0  0
  -19.9354   -4.6029  -26.8228 N   0  0  0  0  0  0  0  0  0  0  0  0
  -24.4814   -4.1943  -24.5036 N   0  3  0  0  0  0  0  0  0  0  0  0
  -27.1103   -4.8029  -21.9496 O   0  0  0  0  0  0  0  0  0  0  0  0
  -22.8781   -4.1564  -31.4637 O   0  0  0  0  0  0  0  0  0  0  0  0
  -20.1284   -4.4407  -31.6979 O   0  0  0  0  0  0  0  0  0  0  0  0
  -19.5401   -6.2709  -37.3761 H   0  0  0  0  0  0  0  0  0  0  0  0
  -19.3736   -8.2484  -35.8872 H   0  0  0  0  0  0  0  0  0  0  0  0
  -19.6400   -3.9904  -36.4030 H   0  0  0  0  0  0  0  0  0  0  0  0
  -19.3076   -7.9523  -33.4331 H   0  0  0  0  0  0  0  0  0  0  0  0
  -19.5746   -3.6837  -33.9504 H   0  0  0  0  0  0  0  0  0  0  0  0
  -23.7852   -4.1326  -29.0023 H   0  0  0  0  0  0  0  0  0  0  0  0
  -18.8374   -4.6425  -29.4341 H   0  0  0  0  0  0  0  0  0  0  0  0
  -13.7907   -4.3730  -26.1250 H   0  0  0  0  0  0  0  0  0  0  0  0
  -13.7839   -6.8833  -24.6972 H   0  0  0  0  0  0  0  0  0  0  0  0
  -18.7059   -6.6206  -25.5122 H   0  0  0  0  0  0  0  0  0  0  0  0
  -18.1325   -2.8589  -27.5709 H   0  0  0  0  0  0  0  0  0  0  0  0
  -15.6863   -2.9693  -27.1789 H   0  0  0  0  0  0  0  0  0  0  0  0
  -22.7712   -6.4949  -26.3832 H   0  0  0  0  0  0  0  0  0  0  0  0
  -24.1402   -5.5257  -26.8866 H   0  0  0  0  0  0  0  0  0  0  0  0
  -23.8606   -2.8267  -26.8083 H   0  0  0  0  0  0  0  0  0  0  0  0
  -22.3250   -2.1894  -26.2585 H   0  0  0  0  0  0  0  0  0  0  0  0
  -20.7544   -3.6730  -25.1254 H   0  0  0  0  0  0  0  0  0  0  0  0
  -20.9392   -5.4287  -25.1711 H   0  0  0  0  0  0  0  0  0  0  0  0
  -24.5596   -6.3017  -24.6291 H   0  0  0  0  0  0  0  0  0  0  0  0
  -23.0120   -5.6427  -24.0296 H   0  0  0  0  0  0  0  0  0  0  0  0
  -22.7487   -3.1079  -23.9563 H   0  0  0  0  0  0  0  0  0  0  0  0
  -24.1248   -2.1121  -24.5075 H   0  0  0  0  0  0  0  0  0  0  0  0
  -23.7439   -2.8884  -32.8460 H   0  0  0  0  0  0  0  0  0  0  0  0
  -22.1584   -2.3643  -32.1981 H   0  0  0  0  0  0  0  0  0  0  0  0
  -23.6209   -2.2564  -31.1833 H   0  0  0  0  0  0  0  0  0  0  0  0
  -19.8393   -6.4749  -31.5289 H   0  0  0  0  0  0  0  0  0  0  0  0
  -18.3637   -5.5092  -31.6921 H   0  0  0  0  0  0  0  0  0  0  0  0
  -24.4417   -4.6765  -22.4660 H   0  0  0  0  0  0  0  0  0  0  0  0
  -25.2294   -3.1140  -22.8681 H   0  0  0  0  0  0  0  0  0  0  0  0
  -27.1195   -4.3416  -23.9409 H   0  0  0  0  0  0  0  0  0  0  0  0
  -26.3779   -5.9047  -23.5246 H   0  0  0  0  0  0  0  0  0  0  0  0
  -16.1497   -7.5608  -24.6328 H   0  0  0  0  0  0  0  0  0  0  0  0
  -25.2425   -4.0954  -25.1896 H   0  0  0  0  0  0  0  0  0  0  0  0
  -27.9646   -5.2545  -22.0430 H   0  0  0  0  0  0  0  0  0  0  0  0
  1  2  2  0  0  0  0
  1  3  1  0  0  0  0
  2  4  1  0  0  0  0
  3  5  2  0  0  0  0
  4 11  2  0  0  0  0
  5 11  1  0  0  0  0
  6 10  1  0  0  0  0
  6 13  2  0  0  0  0
  7 12  1  0  0  0  0
  7 14  2  0  0  0  0
  8  9  2  0  0  0  0
  8 30  1  0  0  0  0
  9 31  1  0  0  0  0
 10 12  2  0  0  0  0
 10 25  1  0  0  0  0
 11 27  1  0  0  0  0
 12 32  1  0  0  0  0
 13 14  1  0  0  0  0
 13 35  1  0  0  0  0
 14 36  1  0  0  0  0
 15 16  1  0  0  0  0
 15 30  1  0  0  0  0
 15 31  2  0  0  0  0
 16 19  2  0  0  0  0
 17 18  2  0  0  0  0
 17 19  1  0  0  0  0
 18 30  1  0  0  0  0
 19 32  1  0  0  0  0
 20 23  1  0  0  0  0
 20 25  1  0  0  0  0
 21 24  1  0  0  0  0
 21 25  1  0  0  0  0
 22 25  1  0  0  0  0
 22 32  1  0  0  0  0
 23 33  1  0  0  0  0
 24 33  1  0  0  0  0
 26 35  1  0  0  0  0
 27 36  1  0  0  0  0
 28 29  1  0  0  0  0
 28 33  1  0  0  0  0
 29 34  1  0  0  0  0
  1 37  1  0  0  0  0
  2 38  1  0  0  0  0
  3 39  1  0  0  0  0
  4 40  1  0  0  0  0
  5 41  1  0  0  0  0
  6 42  1  0  0  0  0
  7 43  1  0  0  0  0
  8 44  1  0  0  0  0
  9 45  1  0  0  0  0
 16 46  1  0  0  0  0
 17 47  1  0  0  0  0
 18 48  1  0  0  0  0
 20 49  1  0  0  0  0
 20 50  1  0  0  0  0
 21 51  1  0  0  0  0
 21 52  1  0  0  0  0
 22 53  1  0  0  0  0
 22 54  1  0  0  0  0
 23 55  1  0  0  0  0
 23 56  1  0  0  0  0
 24 57  1  0  0  0  0
 24 58  1  0  0  0  0
 26 59  1  0  0  0  0
 26 60  1  0  0  0  0
 26 61  1  0  0  0  0
 27 62  1  0  0  0  0
 27 63  1  0  0  0  0
 28 64  1  0  0  0  0
 28 65  1  0  0  0  0
 29 66  1  0  0  0  0
 29 67  1  0  0  0  0
 31 68  1  0  0  0  0
 33 69  1  0  0  0  0
 34 70  1  0  0  0  0
M  CHG  2  31   1  33   1
M  END
> <SMILES>
COc1cc2c(cc1OCc1ccccc1)N(CC12CCN(CCO)CC1)c1ccn2ccnc2c1

> <FORMATTED_ID>
H3D-013429

> <MOLFORMULA>
C29H32N4O3

> <Exact Mass>
484.25

> <XLogP>
5.26

> <TPSA_NOPS>
62.5

> <s_m_source_file>
ligprep_h3d.sdf

> <i_m_source_file_index>
5136

> <i_lp_mmshare_version>
55123

> <i_f3d_flags>
0

> <s_epik_input>
W2NIXTFbY0hdW2NIXVtjSF1bY0hdYzFbQ0gyXU9jKGMoW2NIXTIpT1tDSDNdKVtjSF1jKE4oW0NIMl0zKWMoW2NIXVtjSF00KVtjSF1jKG40NSluW2NIXVtjSF01KWMyQzM2W0NIMl1bQ0gyXU4oW0NIMl1bQ0gyXTYpW0NIMl1bQ0gyXVtPSF0=

> <s_epik_cmdline>
J2VwaWtfcHl0aG9uJywgJy1waHQnLCAnMC41JywgJy1waCcsICc3LjUnLCAnLXRuJywgJzgnLCAnLW1hJywgJzUwMCcsICctaW1hZScsICc8aW5maWxlLm1hZT4nLCAnLW9tYWUnLCAnPG91dGZpbGUubWFlPic=

> <r_lp_tautomer_probability>
1

> <r_epik_Ionization_Penalty>
0.421414

> <r_epik_Ionization_Penalty_Charging>
0.0243449

> <r_epik_Ionization_Penalty_Neutral>
0.397069

> <r_epik_State_Penalty>
0.390996

> <r_epik_Charging_Adjusted_Penalty>
0.415341

> <i_epik_Tot_Q>
2

> <i_epik_Tot_abs_Q>
2

> <s_lp_Force_Field>
S-OPLS

> <r_lp_Energy>
75.1521

> <b_lp_Chiralities_Consistent>
1

> <s_lp_Variant>
ligprep_h3d.sdf:5136-1

> <ROCS_ShapeQuery>
_7L13

> <ROCS_TanimotoCombo>
0.754 

> <ROCS_ShapeTanimoto>
0.670 

> <ROCS_ColorTanimoto>
0.084 

> <ROCS_RefTversky>
0.804 

> <ROCS_RefColorTversky>
0.194 

> <ROCS_RefTverskyCombo>
0.997 

> <ROCS_FitTversky>
0.801 

> <ROCS_FitColorTversky>
0.130 

> <ROCS_FitTverskyCombo>
0.930 

> <ROCS_ColorScore>
-1.790

> <ROCS_Overlap>
1335.220

> <ROCS_Rank>
178                 

$$$$
ligprep_h3d.sdf:2660_1329
  -OEChem-08212117123D

 69 73  0     1  0  0  0  0  0999 V2000
  -23.8386   -1.3328  -33.2631 C   0  0  0  0  0  0  0  0  0  0  0  0
  -24.0795   -2.4879  -34.0107 C   0  0  0  0  0  0  0  0  0  0  0  0
  -21.7064   -6.9549  -34.4010 C   0  0  0  0  0  0  0  0  0  0  0  0
  -19.9463   -6.1605  -32.9491 C   0  0  0  0  0  0  0  0  0  0  0  0
  -20.7696   -7.1924  -35.4067 C   0  0  0  0  0  0  0  0  0  0  0  0
  -19.0095   -6.3980  -33.9548 C   0  0  0  0  0  0  0  0  0  0  0  0
  -24.0826   -4.0042  -22.5537 C   0  0  0  0  0  0  0  0  0  0  0  0
  -23.1208   -1.3877  -32.0617 C   0  0  0  0  0  0  0  0  0  0  0  0
  -23.6135   -3.7369  -33.5871 C   0  0  0  0  0  0  0  0  0  0  0  0
  -25.3943   -4.4467  -22.3833 C   0  0  0  0  0  0  0  0  0  0  0  0
  -19.0204   -4.4720  -26.0530 C   0  0  0  0  0  0  0  0  0  0  0  0
  -19.3325   -5.6991  -28.1107 C   0  0  0  0  0  0  0  0  0  0  0  0
  -25.4255   -5.2336  -24.6674 C   0  0  0  0  0  0  0  0  0  0  0  0
  -21.2948   -6.4389  -33.1721 C   0  0  0  0  0  0  0  0  0  0  0  0
  -19.4211   -6.9140  -35.1836 C   0  0  0  0  0  0  0  0  0  0  0  0
  -23.4423   -4.1762  -23.7809 C   0  0  0  0  0  0  0  0  0  0  0  0
  -20.0794   -3.6308  -26.3940 C   0  0  0  0  0  0  0  0  0  0  0  0
  -22.6454   -2.6343  -31.6210 C   0  0  0  0  0  0  0  0  0  0  0  0
  -22.9012   -3.7676  -32.3878 C   0  0  0  0  0  0  0  0  0  0  0  0
  -20.3916   -4.8578  -28.4517 C   0  0  0  0  0  0  0  0  0  0  0  0
  -24.1137   -4.7910  -24.8378 C   0  0  0  0  0  0  0  0  0  0  0  0
  -20.7651   -3.8236  -27.5933 C   0  0  0  0  0  0  0  0  0  0  0  0
  -26.0658   -5.0615  -23.4401 C   0  0  0  0  0  0  0  0  0  0  0  0
  -18.6469   -5.5062  -26.9114 C   0  0  0  0  0  0  0  0  0  0  0  0
  -21.7432   -4.2578  -30.5676 C   0  0  0  0  0  0  0  0  0  0  0  0
  -21.5918   -0.7913  -23.3628 C   0  0  0  0  0  0  0  0  0  0  0  0
  -22.3048   -6.1827  -32.0864 C   0  0  0  0  0  0  0  0  0  0  0  0
  -22.0318   -3.6803  -23.9053 C   0  0  0  0  0  0  0  0  0  0  0  0
  -20.4640   -2.5289  -25.4625 C   0  0  0  0  0  0  0  0  0  0  0  0
  -22.4091   -1.2975  -24.5312 C   0  0  0  0  0  0  0  0  0  0  0  0
  -18.4198   -7.1698  -36.2589 C   0  0  0  0  0  0  0  0  0  0  0  0
  -21.9248   -2.9583  -30.4944 N   0  0  0  0  0  0  0  0  0  0  0  0
  -22.3127   -4.7911  -31.6902 N   0  0  0  0  0  0  0  0  0  0  0  0
  -21.0915   -5.0687  -29.7005 N   0  0  0  0  0  0  0  0  0  0  0  0
  -21.8666   -2.6317  -24.9754 N   0  3  2  0  0  0  0  0  0  0  0  0
  -23.5426   -4.9587  -25.9742 O   0  5  0  0  0  0  0  0  0  0  0  0
  -21.7995   -2.9978  -27.9254 O   0  0  0  0  0  0  0  0  0  0  0  0
  -18.9642   -7.6758  -37.4050 F   0  0  0  0  0  0  0  0  0  0  0  0
  -17.7408   -6.0514  -36.6510 F   0  0  0  0  0  0  0  0  0  0  0  0
  -17.4619   -8.0662  -35.8820 F   0  0  0  0  0  0  0  0  0  0  0  0
  -27.6844   -5.6070  -23.2279 Cl  0  0  0  0  0  0  0  0  0  0  0  0
  -17.3388   -6.5434  -26.4915 Cl  0  0  0  0  0  0  0  0  0  0  0  0
  -24.2136   -0.3764  -33.6186 H   0  0  0  0  0  0  0  0  0  0  0  0
  -24.6392   -2.4156  -34.9399 H   0  0  0  0  0  0  0  0  0  0  0  0
  -22.7551   -7.1746  -34.5837 H   0  0  0  0  0  0  0  0  0  0  0  0
  -19.6168   -5.7596  -31.9941 H   0  0  0  0  0  0  0  0  0  0  0  0
  -21.0993   -7.5962  -36.3602 H   0  0  0  0  0  0  0  0  0  0  0  0
  -17.9607   -6.1784  -33.7728 H   0  0  0  0  0  0  0  0  0  0  0  0
  -23.5691   -3.5265  -21.7233 H   0  0  0  0  0  0  0  0  0  0  0  0
  -22.9388   -0.4847  -31.4879 H   0  0  0  0  0  0  0  0  0  0  0  0
  -23.8008   -4.6326  -34.1684 H   0  0  0  0  0  0  0  0  0  0  0  0
  -25.8807   -4.3059  -21.4214 H   0  0  0  0  0  0  0  0  0  0  0  0
  -18.4880   -4.3178  -25.1171 H   0  0  0  0  0  0  0  0  0  0  0  0
  -19.0430   -6.5048  -28.7821 H   0  0  0  0  0  0  0  0  0  0  0  0
  -25.9617   -5.7155  -25.4849 H   0  0  0  0  0  0  0  0  0  0  0  0
  -21.6708   -1.4829  -22.5185 H   0  0  0  0  0  0  0  0  0  0  0  0
  -20.5336   -0.7019  -23.6292 H   0  0  0  0  0  0  0  0  0  0  0  0
  -21.9433    0.1909  -23.0298 H   0  0  0  0  0  0  0  0  0  0  0  0
  -23.3161   -6.4517  -32.4148 H   0  0  0  0  0  0  0  0  0  0  0  0
  -22.0943   -6.7906  -31.1981 H   0  0  0  0  0  0  0  0  0  0  0  0
  -21.6861   -3.2306  -22.9683 H   0  0  0  0  0  0  0  0  0  0  0  0
  -21.3461   -4.4968  -24.1564 H   0  0  0  0  0  0  0  0  0  0  0  0
  -19.8265   -2.5158  -24.5688 H   0  0  0  0  0  0  0  0  0  0  0  0
  -20.3748   -1.5458  -25.9432 H   0  0  0  0  0  0  0  0  0  0  0  0
  -22.3475   -0.6235  -25.3901 H   0  0  0  0  0  0  0  0  0  0  0  0
  -23.4560   -1.4520  -24.2556 H   0  0  0  0  0  0  0  0  0  0  0  0
  -21.0616   -6.0788  -29.9445 H   0  0  0  0  0  0  0  0  0  0  0  0
  -22.4531   -2.9348  -25.7700 H   0  0  0  0  0  0  0  0  0  0  0  0
  -21.9321   -2.3348  -27.2309 H   0  0  0  0  0  0  0  0  0  0  0  0
  1  2  2  0  0  0  0
  1  8  1  0  0  0  0
  2  9  1  0  0  0  0
  3  5  1  0  0  0  0
  3 14  2  0  0  0  0
  4  6  2  0  0  0  0
  4 14  1  0  0  0  0
  5 15  2  0  0  0  0
  6 15  1  0  0  0  0
  7 10  1  0  0  0  0
  7 16  2  0  0  0  0
  8 18  2  0  0  0  0
  9 19  2  0  0  0  0
 10 23  2  0  0  0  0
 11 17  2  0  0  0  0
 11 24  1  0  0  0  0
 12 20  1  0  0  0  0
 12 24  2  0  0  0  0
 13 21  2  0  0  0  0
 13 23  1  0  0  0  0
 14 27  1  0  0  0  0
 15 31  1  0  0  0  0
 16 21  1  0  0  0  0
 16 28  1  0  0  0  0
 17 22  1  0  0  0  0
 17 29  1  0  0  0  0
 18 19  1  0  0  0  0
 18 32  1  0  0  0  0
 19 33  1  0  0  0  0
 20 22  2  0  0  0  0
 20 34  1  0  0  0  0
 21 36  1  0  0  0  0
 22 37  1  0  0  0  0
 23 41  1  0  0  0  0
 24 42  1  0  0  0  0
 25 32  2  0  0  0  0
 25 33  1  0  0  0  0
 25 34  1  0  0  0  0
 26 30  1  0  0  0  0
 27 33  1  0  0  0  0
 28 35  1  0  0  0  0
 29 35  1  0  0  0  0
 30 35  1  0  0  0  0
 31 38  1  0  0  0  0
 31 39  1  0  0  0  0
 31 40  1  0  0  0  0
  1 43  1  0  0  0  0
  2 44  1  0  0  0  0
  3 45  1  0  0  0  0
  4 46  1  0  0  0  0
  5 47  1  0  0  0  0
  6 48  1  0  0  0  0
  7 49  1  0  0  0  0
  8 50  1  0  0  0  0
  9 51  1  0  0  0  0
 10 52  1  0  0  0  0
 11 53  1  0  0  0  0
 12 54  1  0  0  0  0
 13 55  1  0  0  0  0
 26 56  1  0  0  0  0
 26 57  1  0  0  0  0
 26 58  1  0  0  0  0
 27 59  1  0  0  0  0
 27 60  1  0  0  0  0
 28 61  1  0  0  0  0
 28 62  1  0  0  0  0
 29 63  1  0  0  0  0
 29 64  1  0  0  0  0
 30 65  1  0  0  0  0
 30 66  1  0  0  0  0
 34 67  1  0  0  0  0
 35 68  1  0  0  0  0
 37 69  1  0  0  0  0
M  CHG  2  35   1  36  -1
M  END
> <SMILES>
CCN(Cc1ccc(cc1O)Cl)Cc1cc(cc(c1O)Nc1nc2ccccc2n1Cc1ccc(cc1)C(F)(F)F)Cl

> <FORMATTED_ID>
H3D-007348

> <MOLFORMULA>
C31H27Cl2F3N4O2

> <Exact Mass>
614.15

> <XLogP>
9.9

> <TPSA_NOPS>
73.5

> <s_m_source_file>
ligprep_h3d.sdf

> <i_m_source_file_index>
2660

> <i_lp_mmshare_version>
55123

> <i_f3d_flags>
0

> <s_epik_input>
W09IXWMxW2NIXWMoQ2wpW2NIXVtjSF1jMVtDSDJdTihbQ0gyXVtDSDNdKVtDSDJdYzJbY0hdYyhDbClbY0hdYyhjMltPSF0pW05IXWMobjMpbihjKGMzNClbY0hdW2NIXVtjSF1bY0hdNClbQ0gyXWM1W2NIXVtjSF1jKEMoRikoRilGKVtjSF1bY0hdNQ==

> <s_epik_cmdline>
J2VwaWtfcHl0aG9uJywgJy1waHQnLCAnMC41JywgJy1waCcsICc3LjUnLCAnLXRuJywgJzgnLCAnLW1hJywgJzUwMCcsICctaW1hZScsICc8aW5maWxlLm1hZT4nLCAnLW9tYWUnLCAnPG91dGZpbGUubWFlPic=

> <r_lp_tautomer_probability>
1

> <r_epik_Ionization_Penalty>
0.863697

> <r_epik_Ionization_Penalty_Charging>
0.476462

> <r_epik_Ionization_Penalty_Neutral>
0.387235

> <r_epik_State_Penalty>
-0

> <r_epik_Charging_Adjusted_Penalty>
0.476462

> <i_epik_Tot_Q>
0

> <i_epik_Tot_abs_Q>
2

> <s_lp_Force_Field>
S-OPLS

> <r_lp_Energy>
45.3962

> <b_lp_Chiralities_Consistent>
1

> <s_lp_Variant>
ligprep_h3d.sdf:2660-1

> <ROCS_ShapeQuery>
_7L13

> <ROCS_TanimotoCombo>
0.691 

> <ROCS_ShapeTanimoto>
0.602 

> <ROCS_ColorTanimoto>
0.089 

> <ROCS_RefTversky>
0.804 

> <ROCS_RefColorTversky>
0.196 

> <ROCS_RefTverskyCombo>
1.000 

> <ROCS_FitTversky>
0.705 

> <ROCS_FitColorTversky>
0.141 

> <ROCS_FitTverskyCombo>
0.846 

> <ROCS_ColorScore>
-1.804

> <ROCS_Overlap>
1345.120

> <ROCS_Rank>
179                 

$$$$
ligprep_h3d.sdf:1079_1523
  -OEChem-08212117123D

 58 63  0     1  0  0  0  0  0999 V2000
  -20.9313   -5.0991  -29.5077 C   0  0  0  0  0  0  0  0  0  0  0  0
  -21.7213   -4.3552  -30.3868 C   0  0  0  0  0  0  0  0  0  0  0  0
  -21.0560   -4.8655  -28.1171 C   0  0  0  0  0  0  0  0  0  0  0  0
  -21.9785   -3.9358  -27.5815 C   0  0  0  0  0  0  0  0  0  0  0  0
  -22.5934   -3.4277  -29.8607 C   0  0  0  0  0  0  0  0  0  0  0  0
  -22.7527   -3.1840  -28.4963 C   0  0  0  0  0  0  0  0  0  0  0  0
  -21.9149   -4.2470  -31.7765 C   0  0  0  0  0  0  0  0  0  0  0  0
  -18.9033   -3.7123  -26.2326 C   0  0  0  0  0  0  0  0  0  0  0  0
  -19.1616   -5.9371  -25.0141 C   0  0  0  0  0  0  0  0  0  0  0  0
  -19.7890   -7.1367  -35.7434 C   0  0  0  0  0  0  0  0  0  0  0  0
  -17.0121   -4.9925  -25.8261 C   0  0  0  0  0  0  0  0  0  0  0  0
  -20.1793   -5.6692  -27.1944 C   0  0  0  0  0  0  0  0  0  0  0  0
  -19.7840   -8.5367  -35.2048 C   0  0  0  0  0  0  0  0  0  0  0  0
  -20.0676   -8.3099  -33.7390 C   0  0  0  0  0  0  0  0  0  0  0  0
  -23.0914   -2.8428  -25.6450 C   0  0  0  0  0  0  0  0  0  0  0  0
  -21.1823   -4.4417  -25.2373 C   0  0  2  0  0  0  0  0  0  0  0  0
  -20.9405   -7.0754  -33.7689 C   0  0  1  0  0  0  0  0  0  0  0  0
  -23.4522   -3.1795  -24.1952 C   0  0  1  0  0  0  0  0  0  0  0  0
  -21.0621   -3.5055  -23.9991 C   0  0  2  0  0  0  0  0  0  0  0  0
  -19.8387   -4.8971  -25.8958 C   0  0  2  0  0  0  0  0  0  0  0  0
  -24.3924   -4.3786  -24.0872 C   0  0  0  0  0  0  0  0  0  0  0  0
  -20.0874   -3.9429  -22.9130 C   0  0  0  0  0  0  0  0  0  0  0  0
  -20.8713   -6.2609  -32.4911 C   0  0  0  0  0  0  0  0  0  0  0  0
  -22.8307   -3.3258  -32.0905 N   0  0  0  0  0  0  0  0  0  0  0  0
  -17.6287   -4.0130  -26.4885 N   0  5  0  0  0  0  0  0  0  0  0  0
  -17.7835   -5.8719  -25.0684 N   0  0  0  0  0  0  0  0  0  0  0  0
  -22.0965   -3.7695  -26.1994 N   0  0  3  0  0  0  0  0  0  0  0  0
  -19.3545   -2.5750  -26.3667 O   0  0  0  0  0  0  0  0  0  0  0  0
  -19.7663   -6.7985  -24.3794 O   0  0  0  0  0  0  0  0  0  0  0  0
  -19.3218   -6.7873  -36.8161 O   0  0  0  0  0  0  0  0  0  0  0  0
  -15.7911   -5.1655  -25.8702 O   0  0  0  0  0  0  0  0  0  0  0  0
  -23.2576   -2.8067  -30.8737 O   0  0  0  0  0  0  0  0  0  0  0  0
  -20.4305   -6.3049  -34.8659 O   0  0  0  0  0  0  0  0  0  0  0  0
  -22.3329   -3.4039  -23.3430 O   0  0  0  0  0  0  0  0  0  0  0  0
  -21.3135   -4.9218  -32.7652 O   0  0  0  0  0  0  0  0  0  0  0  0
  -23.5572   -2.1801  -28.1272 F   0  0  0  0  0  0  0  0  0  0  0  0
  -20.2276   -5.8349  -29.8861 H   0  0  0  0  0  0  0  0  0  0  0  0
  -20.7081   -6.6042  -26.9644 H   0  0  0  0  0  0  0  0  0  0  0  0
  -19.2564   -5.9548  -27.7163 H   0  0  0  0  0  0  0  0  0  0  0  0
  -20.5792   -9.1099  -35.6900 H   0  0  0  0  0  0  0  0  0  0  0  0
  -18.8136   -9.0145  -35.3567 H   0  0  0  0  0  0  0  0  0  0  0  0
  -20.5486   -9.1645  -33.2550 H   0  0  0  0  0  0  0  0  0  0  0  0
  -19.1246   -8.1107  -33.2144 H   0  0  0  0  0  0  0  0  0  0  0  0
  -23.9990   -2.9164  -26.2789 H   0  0  0  0  0  0  0  0  0  0  0  0
  -22.8182   -1.7765  -25.6807 H   0  0  0  0  0  0  0  0  0  0  0  0
  -21.7251   -5.3432  -24.9099 H   0  0  0  0  0  0  0  0  0  0  0  0
  -21.9835   -7.3298  -33.9917 H   0  0  0  0  0  0  0  0  0  0  0  0
  -24.0338   -2.2966  -23.7556 H   0  0  0  0  0  0  0  0  0  0  0  0
  -20.7682   -2.4847  -24.3030 H   0  0  0  0  0  0  0  0  0  0  0  0
  -23.9087   -5.2691  -24.4887 H   0  0  0  0  0  0  0  0  0  0  0  0
  -25.3060   -4.1880  -24.6505 H   0  0  0  0  0  0  0  0  0  0  0  0
  -24.6511   -4.5568  -23.0433 H   0  0  0  0  0  0  0  0  0  0  0  0
  -20.3331   -4.9497  -22.5749 H   0  0  0  0  0  0  0  0  0  0  0  0
  -20.1442   -3.2612  -22.0643 H   0  0  0  0  0  0  0  0  0  0  0  0
  -19.0691   -3.9392  -23.3023 H   0  0  0  0  0  0  0  0  0  0  0  0
  -19.8445   -6.2231  -32.1153 H   0  0  0  0  0  0  0  0  0  0  0  0
  -21.5182   -6.6955  -31.7232 H   0  0  0  0  0  0  0  0  0  0  0  0
  -17.2763   -6.5376  -24.4932 H   0  0  0  0  0  0  0  0  0  0  0  0
  1  2  2  0  0  0  0
  1  3  1  0  0  0  0
  2  5  1  0  0  0  0
  2  7  1  0  0  0  0
  3  4  2  0  0  0  0
  3 12  1  0  0  0  0
  4  6  1  0  0  0  0
  4 27  1  0  0  0  0
  5  6  2  0  0  0  0
  5 32  1  0  0  0  0
  6 36  1  0  0  0  0
  7 24  2  0  0  0  0
  7 35  1  0  0  0  0
  8 20  1  0  0  0  0
  8 25  1  0  0  0  0
  8 28  2  0  0  0  0
  9 20  1  0  0  0  0
  9 26  1  0  0  0  0
  9 29  2  0  0  0  0
 10 13  1  0  0  0  0
 10 30  2  0  0  0  0
 10 33  1  0  0  0  0
 11 25  1  0  0  0  0
 11 26  1  0  0  0  0
 11 31  2  0  0  0  0
 12 20  1  0  0  0  0
 13 14  1  0  0  0  0
 14 17  1  0  0  0  0
 15 18  1  0  0  0  0
 15 27  1  0  0  0  0
 16 19  1  0  0  0  0
 16 20  1  0  0  0  0
 16 27  1  0  0  0  0
 17 23  1  0  0  0  0
 17 33  1  0  0  0  0
 18 21  1  0  0  0  0
 18 34  1  0  0  0  0
 19 22  1  0  0  0  0
 19 34  1  0  0  0  0
 23 35  1  0  0  0  0
 24 32  1  0  0  0  0
  1 37  1  0  0  0  0
 12 38  1  0  0  0  0
 12 39  1  0  0  0  0
 13 40  1  0  0  0  0
 13 41  1  0  0  0  0
 14 42  1  0  0  0  0
 14 43  1  0  0  0  0
 15 44  1  0  0  0  0
 15 45  1  0  0  0  0
 16 46  1  0  0  0  0
 17 47  1  0  0  0  0
 18 48  1  0  0  0  0
 19 49  1  0  0  0  0
 21 50  1  0  0  0  0
 21 51  1  0  0  0  0
 21 52  1  0  0  0  0
 22 53  1  0  0  0  0
 22 54  1  0  0  0  0
 22 55  1  0  0  0  0
 23 56  1  0  0  0  0
 23 57  1  0  0  0  0
 26 58  1  0  0  0  0
M  CHG  1  25  -1
M  END
> <SMILES>
C[C@@H]1CN2[C@H]([C@H](C)O1)C1(Cc3cc4c(noc4c(c32)F)OC[C@@H]2CCC(=O)O2)C(=O)NC(=O)NC1=O

> <FORMATTED_ID>
H3D-006687

> <MOLFORMULA>
C23H23FN4O8

> <Exact Mass>
502.15

> <XLogP>
0.83

> <TPSA_NOPS>
149.6

> <s_m_source_file>
ligprep_h3d.sdf

> <i_m_source_file_index>
1079

> <i_lp_mmshare_version>
55123

> <i_f3d_flags>
0

> <s_epik_input>
Tz1DMVtOSF1DKD1PKVtOSF1DKD1PKUMxMltDQEBIXTNOKFtDSDJdW0NAQEhdKFtDSDNdKU9bQ0BIXTNbQ0gzXSljNGMoW0NIMl0yKVtjSF1jNWMoYzRGKW9uYzVPW0NIMl1bQ0BASF02W0NIMl1bQ0gyXUMoPU8pTzY=

> <s_epik_cmdline>
J2VwaWtfcHl0aG9uJywgJy1waHQnLCAnMC41JywgJy1waCcsICc3LjUnLCAnLXRuJywgJzgnLCAnLW1hJywgJzUwMCcsICctaW1hZScsICc8aW5maWxlLm1hZT4nLCAnLW9tYWUnLCAnPG91dGZpbGUubWFlPic=

> <r_lp_tautomer_probability>
1

> <r_epik_Ionization_Penalty>
0.455391

> <r_epik_Ionization_Penalty_Charging>
0.455373

> <r_epik_Ionization_Penalty_Neutral>
1.74353e-05

> <r_epik_State_Penalty>
0.458483

> <r_epik_Charging_Adjusted_Penalty>
0.913857

> <i_epik_Tot_Q>
-1

> <i_epik_Tot_abs_Q>
1

> <s_epik_Chemistry_Notes>
This compound has an ester and may undergo hydrolysis at high or low pH.

> <s_lp_Force_Field>
S-OPLS

> <r_lp_Energy>
46.4971

> <b_lp_Chiralities_Consistent>
1

> <s_lp_Variant>
ligprep_h3d.sdf:1079-2

> <ROCS_ShapeQuery>
_7L13

> <ROCS_TanimotoCombo>
0.781 

> <ROCS_ShapeTanimoto>
0.657 

> <ROCS_ColorTanimoto>
0.124 

> <ROCS_RefTversky>
0.804 

> <ROCS_RefColorTversky>
0.295 

> <ROCS_RefTverskyCombo>
1.099 

> <ROCS_FitTversky>
0.783 

> <ROCS_FitColorTversky>
0.176 

> <ROCS_FitTverskyCombo>
0.959 

> <ROCS_ColorScore>
-2.763

> <ROCS_Overlap>
1336.641

> <ROCS_Rank>
180                 

$$$$
ligprep_h3d.sdf:5338_871
  -OEChem-08212117123D

 78 83  0     0  0  0  0  0  0999 V2000
  -18.8124   -6.9620  -35.4399 C   0  0  0  0  0  0  0  0  0  0  0  0
  -19.9082   -7.7161  -35.0201 C   0  0  0  0  0  0  0  0  0  0  0  0
  -18.6044   -5.6846  -34.9196 C   0  0  0  0  0  0  0  0  0  0  0  0
  -20.7959   -7.1928  -34.0801 C   0  0  0  0  0  0  0  0  0  0  0  0
  -19.4921   -5.1613  -33.9796 C   0  0  0  0  0  0  0  0  0  0  0  0
  -23.0384   -3.8426  -28.8200 C   0  0  0  0  0  0  0  0  0  0  0  0
  -20.4073   -4.6906  -29.3592 C   0  0  0  0  0  0  0  0  0  0  0  0
  -14.5257   -5.6883  -25.6789 C   0  0  0  0  0  0  0  0  0  0  0  0
  -15.0404   -6.7477  -26.3882 C   0  0  0  0  0  0  0  0  0  0  0  0
  -22.1655   -4.1657  -27.7880 C   0  0  0  0  0  0  0  0  0  0  0  0
  -20.5879   -5.9154  -33.5598 C   0  0  0  0  0  0  0  0  0  0  0  0
  -20.8552   -4.5864  -28.0473 C   0  0  0  0  0  0  0  0  0  0  0  0
  -22.5845   -3.9392  -30.1348 C   0  0  0  0  0  0  0  0  0  0  0  0
  -21.2771   -4.3617  -30.4027 C   0  0  0  0  0  0  0  0  0  0  0  0
  -16.5789   -5.1954  -26.0101 C   0  0  0  0  0  0  0  0  0  0  0  0
  -17.8954   -4.6562  -26.1048 C   0  0  0  0  0  0  0  0  0  0  0  0
  -18.5809   -6.6363  -27.3492 C   0  0  0  0  0  0  0  0  0  0  0  0
  -17.3437   -7.1509  -27.2651 C   0  0  0  0  0  0  0  0  0  0  0  0
  -18.8779   -5.3324  -26.7457 C   0  0  0  0  0  0  0  0  0  0  0  0
  -26.0859   -4.7572  -20.6899 C   0  0  0  0  0  0  0  0  0  0  0  0
  -23.3750   -2.8983  -24.3091 C   0  0  0  0  0  0  0  0  0  0  0  0
  -23.7688   -5.3946  -24.4697 C   0  0  0  0  0  0  0  0  0  0  0  0
  -23.0231   -2.8529  -25.7970 C   0  0  0  0  0  0  0  0  0  0  0  0
  -23.3759   -5.3626  -25.9496 C   0  0  0  0  0  0  0  0  0  0  0  0
  -20.9915   -4.4196  -25.7500 C   0  0  0  0  0  0  0  0  0  0  0  0
  -24.3323   -4.0504  -24.0194 C   0  0  0  0  0  0  0  0  0  0  0  0
  -22.4361   -4.1867  -26.3016 C   0  0  0  0  0  0  0  0  0  0  0  0
  -27.5879   -5.4684  -18.8189 C   0  0  0  0  0  0  0  0  0  0  0  0
  -28.1563   -6.0962  -21.1339 C   0  0  0  0  0  0  0  0  0  0  0  0
  -23.4328   -2.2695  -31.6005 C   0  0  0  0  0  0  0  0  0  0  0  0
  -21.5427   -5.3518  -32.5487 C   0  0  0  0  0  0  0  0  0  0  0  0
  -25.8569   -4.7911  -22.1849 C   0  0  0  0  0  0  0  0  0  0  0  0
  -15.4812   -4.7315  -25.4480 N   0  0  0  0  0  0  0  0  0  0  0  0
  -16.3577   -6.4329  -26.6012 N   0  0  0  0  0  0  0  0  0  0  0  0
  -20.1443   -4.8637  -26.8636 N   0  0  0  0  0  0  0  0  0  0  0  0
  -27.2317   -5.4147  -20.2313 N   0  0  0  0  0  0  0  0  0  0  0  0
  -24.5917   -4.1039  -22.5560 N   0  3  0  0  0  0  0  0  0  0  0  0
  -25.2904   -4.1750  -19.9481 O   0  0  0  0  0  0  0  0  0  0  0  0
  -23.4297   -3.6246  -31.1568 O   0  0  0  0  0  0  0  0  0  0  0  0
  -20.8374   -4.4587  -31.6900 O   0  0  0  0  0  0  0  0  0  0  0  0
  -18.1205   -7.3701  -36.1709 H   0  0  0  0  0  0  0  0  0  0  0  0
  -20.0697   -8.7112  -35.4243 H   0  0  0  0  0  0  0  0  0  0  0  0
  -17.7508   -5.0976  -35.2454 H   0  0  0  0  0  0  0  0  0  0  0  0
  -21.6471   -7.7875  -33.7589 H   0  0  0  0  0  0  0  0  0  0  0  0
  -19.3222   -4.1651  -33.5798 H   0  0  0  0  0  0  0  0  0  0  0  0
  -24.0569   -3.5313  -28.6112 H   0  0  0  0  0  0  0  0  0  0  0  0
  -19.3968   -5.0155  -29.5870 H   0  0  0  0  0  0  0  0  0  0  0  0
  -13.5132   -5.5666  -25.3226 H   0  0  0  0  0  0  0  0  0  0  0  0
  -14.5989   -7.6668  -26.7484 H   0  0  0  0  0  0  0  0  0  0  0  0
  -18.0891   -3.6900  -25.6492 H   0  0  0  0  0  0  0  0  0  0  0  0
  -19.3700   -7.1758  -27.8621 H   0  0  0  0  0  0  0  0  0  0  0  0
  -17.0754   -8.1085  -27.6944 H   0  0  0  0  0  0  0  0  0  0  0  0
  -22.4568   -3.0039  -23.7179 H   0  0  0  0  0  0  0  0  0  0  0  0
  -23.8337   -1.9450  -24.0200 H   0  0  0  0  0  0  0  0  0  0  0  0
  -24.5132   -6.1852  -24.3150 H   0  0  0  0  0  0  0  0  0  0  0  0
  -22.8954   -5.6636  -23.8637 H   0  0  0  0  0  0  0  0  0  0  0  0
  -23.9347   -2.6066  -26.3574 H   0  0  0  0  0  0  0  0  0  0  0  0
  -22.3240   -2.0271  -25.9817 H   0  0  0  0  0  0  0  0  0  0  0  0
  -22.9152   -6.3217  -26.2205 H   0  0  0  0  0  0  0  0  0  0  0  0
  -24.2962   -5.2902  -26.5455 H   0  0  0  0  0  0  0  0  0  0  0  0
  -20.5709   -3.4867  -25.3513 H   0  0  0  0  0  0  0  0  0  0  0  0
  -20.9711   -5.1537  -24.9370 H   0  0  0  0  0  0  0  0  0  0  0  0
  -25.3036   -3.8670  -24.4930 H   0  0  0  0  0  0  0  0  0  0  0  0
  -28.2221   -4.6056  -18.5671 H   0  0  0  0  0  0  0  0  0  0  0  0
  -28.1373   -6.3992  -18.6147 H   0  0  0  0  0  0  0  0  0  0  0  0
  -26.6729   -5.4413  -18.2089 H   0  0  0  0  0  0  0  0  0  0  0  0
  -27.8443   -7.1438  -21.2568 H   0  0  0  0  0  0  0  0  0  0  0  0
  -29.1717   -6.0633  -20.7119 H   0  0  0  0  0  0  0  0  0  0  0  0
  -28.1497   -5.5945  -22.1128 H   0  0  0  0  0  0  0  0  0  0  0  0
  -24.1492   -2.1545  -32.4176 H   0  0  0  0  0  0  0  0  0  0  0  0
  -22.4308   -1.9936  -31.9387 H   0  0  0  0  0  0  0  0  0  0  0  0
  -23.7252   -1.6239  -30.7690 H   0  0  0  0  0  0  0  0  0  0  0  0
  -22.3567   -4.8074  -33.0394 H   0  0  0  0  0  0  0  0  0  0  0  0
  -21.9876   -6.1520  -31.9474 H   0  0  0  0  0  0  0  0  0  0  0  0
  -25.7620   -5.8213  -22.5372 H   0  0  0  0  0  0  0  0  0  0  0  0
  -26.6582   -4.2644  -22.7096 H   0  0  0  0  0  0  0  0  0  0  0  0
  -23.8035   -4.5747  -22.0911 H   0  0  0  0  0  0  0  0  0  0  0  0
  -24.6059   -3.1454  -22.1812 H   0  0  0  0  0  0  0  0  0  0  0  0
  1  2  2  0  0  0  0
  1  3  1  0  0  0  0
  2  4  1  0  0  0  0
  3  5  2  0  0  0  0
  4 11  2  0  0  0  0
  5 11  1  0  0  0  0
  6 10  1  0  0  0  0
  6 13  2  0  0  0  0
  7 12  1  0  0  0  0
  7 14  2  0  0  0  0
  8  9  2  0  0  0  0
  8 33  1  0  0  0  0
  9 34  1  0  0  0  0
 10 12  2  0  0  0  0
 10 27  1  0  0  0  0
 11 31  1  0  0  0  0
 12 35  1  0  0  0  0
 13 14  1  0  0  0  0
 13 39  1  0  0  0  0
 14 40  1  0  0  0  0
 15 16  1  0  0  0  0
 15 33  2  0  0  0  0
 15 34  1  0  0  0  0
 16 19  2  0  0  0  0
 17 18  2  0  0  0  0
 17 19  1  0  0  0  0
 18 34  1  0  0  0  0
 19 35  1  0  0  0  0
 20 32  1  0  0  0  0
 20 36  1  0  0  0  0
 20 38  2  0  0  0  0
 21 23  1  0  0  0  0
 21 26  1  0  0  0  0
 22 24  1  0  0  0  0
 22 26  1  0  0  0  0
 23 27  1  0  0  0  0
 24 27  1  0  0  0  0
 25 27  1  0  0  0  0
 25 35  1  0  0  0  0
 26 37  1  0  0  0  0
 28 36  1  0  0  0  0
 29 36  1  0  0  0  0
 30 39  1  0  0  0  0
 31 40  1  0  0  0  0
 32 37  1  0  0  0  0
  1 41  1  0  0  0  0
  2 42  1  0  0  0  0
  3 43  1  0  0  0  0
  4 44  1  0  0  0  0
  5 45  1  0  0  0  0
  6 46  1  0  0  0  0
  7 47  1  0  0  0  0
  8 48  1  0  0  0  0
  9 49  1  0  0  0  0
 16 50  1  0  0  0  0
 17 51  1  0  0  0  0
 18 52  1  0  0  0  0
 21 53  1  0  0  0  0
 21 54  1  0  0  0  0
 22 55  1  0  0  0  0
 22 56  1  0  0  0  0
 23 57  1  0  0  0  0
 23 58  1  0  0  0  0
 24 59  1  0  0  0  0
 24 60  1  0  0  0  0
 25 61  1  0  0  0  0
 25 62  1  0  0  0  0
 26 63  1  0  0  0  0
 28 64  1  0  0  0  0
 28 65  1  0  0  0  0
 28 66  1  0  0  0  0
 29 67  1  0  0  0  0
 29 68  1  0  0  0  0
 29 69  1  0  0  0  0
 30 70  1  0  0  0  0
 30 71  1  0  0  0  0
 30 72  1  0  0  0  0
 31 73  1  0  0  0  0
 31 74  1  0  0  0  0
 32 75  1  0  0  0  0
 32 76  1  0  0  0  0
 37 77  1  0  0  0  0
 37 78  1  0  0  0  0
M  CHG  1  37   1
M  END
> <SMILES>
COc1cc2c(cc1OCc1ccccc1)N(CC12CCC(CC1)NCC(=O)N(C)C)c1ccn2ccnc2c1

> <FORMATTED_ID>
H3D-014951

> <MOLFORMULA>
C32H37N5O3

> <Exact Mass>
539.29

> <XLogP>
6.47

> <TPSA_NOPS>
71.3

> <s_m_source_file>
ligprep_h3d.sdf

> <i_m_source_file_index>
5338

> <i_lp_mmshare_version>
55123

> <i_f3d_flags>
0

> <s_epik_input>
W2NIXTFbY0hdW2NIXVtjSF1bY0hdYzFbQ0gyXU9jKGMoW2NIXTIpT1tDSDNdKVtjSF1jKE4oW0NIMl0zKWMoW2NIXVtjSF00KVtjSF1jKG40NSluW2NIXVtjSF01KWMyW0NAXTM2W0NIMl1bQ0gyXVtDQEhdKFtDSDJdW0NIMl02KVtOSF1bQ0gyXUMoPU8pTihbQ0gzXSlbQ0gzXQ==

> <s_epik_cmdline>
J2VwaWtfcHl0aG9uJywgJy1waHQnLCAnMC41JywgJy1waCcsICc3LjUnLCAnLXRuJywgJzgnLCAnLW1hJywgJzUwMCcsICctaW1hZScsICc8aW5maWxlLm1hZT4nLCAnLW9tYWUnLCAnPG91dGZpbGUubWFlPic=

> <r_lp_tautomer_probability>
1

> <r_epik_Ionization_Penalty>
0.600196

> <r_epik_Ionization_Penalty_Charging>
0.600196

> <r_epik_Ionization_Penalty_Neutral>
3.49271e-09

> <r_epik_State_Penalty>
0.604064

> <r_epik_Charging_Adjusted_Penalty>
1.20426

> <i_epik_Tot_Q>
1

> <i_epik_Tot_abs_Q>
1

> <s_lp_Force_Field>
S-OPLS

> <r_lp_Energy>
89.7175

> <b_lp_Chiralities_Consistent>
1

> <s_lp_Variant>
ligprep_h3d.sdf:5338-2

> <ROCS_ShapeQuery>
_7L13

> <ROCS_TanimotoCombo>
0.728 

> <ROCS_ShapeTanimoto>
0.621 

> <ROCS_ColorTanimoto>
0.107 

> <ROCS_RefTversky>
0.804 

> <ROCS_RefColorTversky>
0.222 

> <ROCS_RefTverskyCombo>
1.026 

> <ROCS_FitTversky>
0.732 

> <ROCS_FitColorTversky>
0.171 

> <ROCS_FitTverskyCombo>
0.903 

> <ROCS_ColorScore>
-2.033

> <ROCS_Overlap>
1341.801

> <ROCS_Rank>
181                 

$$$$
ligprep_h3d.sdf:989_1632
  -OEChem-08212117123D

 57 62  0     1  0  0  0  0  0999 V2000
  -20.9423   -5.1012  -29.5107 C   0  0  0  0  0  0  0  0  0  0  0  0
  -21.7299   -4.3530  -30.3881 C   0  0  0  0  0  0  0  0  0  0  0  0
  -21.0641   -4.8682  -28.1197 C   0  0  0  0  0  0  0  0  0  0  0  0
  -21.9816   -3.9346  -27.5821 C   0  0  0  0  0  0  0  0  0  0  0  0
  -22.5970   -3.4217  -29.8602 C   0  0  0  0  0  0  0  0  0  0  0  0
  -22.7533   -3.1784  -28.4954 C   0  0  0  0  0  0  0  0  0  0  0  0
  -21.9248   -4.2428  -31.7775 C   0  0  0  0  0  0  0  0  0  0  0  0
  -18.9036   -3.7265  -26.2371 C   0  0  0  0  0  0  0  0  0  0  0  0
  -19.1708   -5.9511  -25.0200 C   0  0  0  0  0  0  0  0  0  0  0  0
  -17.0179   -5.0160  -25.8341 C   0  0  0  0  0  0  0  0  0  0  0  0
  -19.7381   -7.2311  -35.7230 C   0  0  0  0  0  0  0  0  0  0  0  0
  -20.1900   -5.6767  -27.1987 C   0  0  0  0  0  0  0  0  0  0  0  0
  -23.0867   -2.8378  -25.6434 C   0  0  0  0  0  0  0  0  0  0  0  0
  -20.1006   -8.3168  -33.7538 C   0  0  0  0  0  0  0  0  0  0  0  0
  -21.1847   -4.4460  -25.2394 C   0  0  2  0  0  0  0  0  0  0  0  0
  -20.9662   -7.0737  -33.7724 C   0  0  1  0  0  0  0  0  0  0  0  0
  -23.4473   -3.1739  -24.1934 C   0  0  1  0  0  0  0  0  0  0  0  0
  -21.0584   -3.5113  -24.0006 C   0  0  2  0  0  0  0  0  0  0  0  0
  -19.8441   -4.9073  -25.9000 C   0  0  2  0  0  0  0  0  0  0  0  0
  -24.3929   -4.3686  -24.0851 C   0  0  0  0  0  0  0  0  0  0  0  0
  -20.0844   -3.9542  -22.9161 C   0  0  0  0  0  0  0  0  0  0  0  0
  -20.8916   -6.2611  -32.4950 C   0  0  0  0  0  0  0  0  0  0  0  0
  -22.8367   -3.3171  -32.0896 N   0  0  0  0  0  0  0  0  0  0  0  0
  -17.6307   -4.0330  -26.4949 N   0  5  0  0  0  0  0  0  0  0  0  0
  -17.7924   -5.8923  -25.0760 N   0  0  0  0  0  0  0  0  0  0  0  0
  -20.4591   -6.3801  -34.9143 N   0  0  0  0  0  0  0  0  0  0  0  0
  -22.0970   -3.7687  -26.1998 N   0  0  3  0  0  0  0  0  0  0  0  0
  -19.3496   -2.5871  -26.3697 O   0  0  0  0  0  0  0  0  0  0  0  0
  -19.7786   -6.8101  -24.3851 O   0  0  0  0  0  0  0  0  0  0  0  0
  -15.7978   -5.1947  -25.8799 O   0  0  0  0  0  0  0  0  0  0  0  0
  -19.2804   -6.9797  -36.8288 O   0  0  0  0  0  0  0  0  0  0  0  0
  -23.2595   -2.7969  -30.8719 O   0  0  0  0  0  0  0  0  0  0  0  0
  -19.6138   -8.4485  -35.1008 O   0  0  0  0  0  0  0  0  0  0  0  0
  -22.3279   -3.4043  -23.3428 O   0  0  0  0  0  0  0  0  0  0  0  0
  -21.3278   -4.9196  -32.7675 O   0  0  0  0  0  0  0  0  0  0  0  0
  -23.5526   -2.1710  -28.1245 F   0  0  0  0  0  0  0  0  0  0  0  0
  -20.2426   -5.8401  -29.8905 H   0  0  0  0  0  0  0  0  0  0  0  0
  -20.7229   -6.6094  -26.9688 H   0  0  0  0  0  0  0  0  0  0  0  0
  -19.2691   -5.9662  -27.7220 H   0  0  0  0  0  0  0  0  0  0  0  0
  -23.9955   -2.9067  -26.2762 H   0  0  0  0  0  0  0  0  0  0  0  0
  -22.8086   -1.7728  -25.6786 H   0  0  0  0  0  0  0  0  0  0  0  0
  -19.2365   -8.2396  -33.0852 H   0  0  0  0  0  0  0  0  0  0  0  0
  -20.6765   -9.2105  -33.4959 H   0  0  0  0  0  0  0  0  0  0  0  0
  -21.7313   -5.3452  -24.9120 H   0  0  0  0  0  0  0  0  0  0  0  0
  -22.0073   -7.3349  -33.9939 H   0  0  0  0  0  0  0  0  0  0  0  0
  -24.0241   -2.2887  -23.7523 H   0  0  0  0  0  0  0  0  0  0  0  0
  -20.7601   -2.4917  -24.3042 H   0  0  0  0  0  0  0  0  0  0  0  0
  -23.9140   -5.2612  -24.4879 H   0  0  0  0  0  0  0  0  0  0  0  0
  -25.3063   -4.1734  -24.6471 H   0  0  0  0  0  0  0  0  0  0  0  0
  -24.6511   -4.5465  -23.0410 H   0  0  0  0  0  0  0  0  0  0  0  0
  -20.3344   -4.9601  -22.5785 H   0  0  0  0  0  0  0  0  0  0  0  0
  -20.1369   -3.2729  -22.0669 H   0  0  0  0  0  0  0  0  0  0  0  0
  -19.0667   -3.9550  -23.3067 H   0  0  0  0  0  0  0  0  0  0  0  0
  -19.8641   -6.2283  -32.1205 H   0  0  0  0  0  0  0  0  0  0  0  0
  -21.5396   -6.6932  -31.7266 H   0  0  0  0  0  0  0  0  0  0  0  0
  -17.2877   -6.5609  -24.5020 H   0  0  0  0  0  0  0  0  0  0  0  0
  -20.6098   -5.3942  -35.1038 H   0  0  0  0  0  0  0  0  0  0  0  0
  1  2  2  0  0  0  0
  1  3  1  0  0  0  0
  2  5  1  0  0  0  0
  2  7  1  0  0  0  0
  3  4  2  0  0  0  0
  3 12  1  0  0  0  0
  4  6  1  0  0  0  0
  4 27  1  0  0  0  0
  5  6  2  0  0  0  0
  5 32  1  0  0  0  0
  6 36  1  0  0  0  0
  7 23  2  0  0  0  0
  7 35  1  0  0  0  0
  8 19  1  0  0  0  0
  8 24  1  0  0  0  0
  8 28  2  0  0  0  0
  9 19  1  0  0  0  0
  9 25  1  0  0  0  0
  9 29  2  0  0  0  0
 10 24  1  0  0  0  0
 10 25  1  0  0  0  0
 10 30  2  0  0  0  0
 11 26  1  0  0  0  0
 11 31  2  0  0  0  0
 11 33  1  0  0  0  0
 12 19  1  0  0  0  0
 13 17  1  0  0  0  0
 13 27  1  0  0  0  0
 14 16  1  0  0  0  0
 14 33  1  0  0  0  0
 15 18  1  0  0  0  0
 15 19  1  0  0  0  0
 15 27  1  0  0  0  0
 16 22  1  0  0  0  0
 16 26  1  0  0  0  0
 17 20  1  0  0  0  0
 17 34  1  0  0  0  0
 18 21  1  0  0  0  0
 18 34  1  0  0  0  0
 22 35  1  0  0  0  0
 23 32  1  0  0  0  0
  1 37  1  0  0  0  0
 12 38  1  0  0  0  0
 12 39  1  0  0  0  0
 13 40  1  0  0  0  0
 13 41  1  0  0  0  0
 14 42  1  0  0  0  0
 14 43  1  0  0  0  0
 15 44  1  0  0  0  0
 16 45  1  0  0  0  0
 17 46  1  0  0  0  0
 18 47  1  0  0  0  0
 20 48  1  0  0  0  0
 20 49  1  0  0  0  0
 20 50  1  0  0  0  0
 21 51  1  0  0  0  0
 21 52  1  0  0  0  0
 21 53  1  0  0  0  0
 22 54  1  0  0  0  0
 22 55  1  0  0  0  0
 25 56  1  0  0  0  0
 26 57  1  0  0  0  0
M  CHG  1  24  -1
M  END
> <SMILES>
C[C@@H]1CN2[C@H]([C@H](C)O1)C1(Cc3cc4c(noc4c(c32)F)OC[C@@H]2COC(=O)N2)C(=O)NC(=O)NC1=O

> <FORMATTED_ID>
H3D-006109

> <MOLFORMULA>
C22H22FN5O8

> <Exact Mass>
503.15

> <XLogP>
-0.35

> <TPSA_NOPS>
161.6

> <s_m_source_file>
ligprep_h3d.sdf

> <i_m_source_file_index>
989

> <i_lp_mmshare_version>
55123

> <i_f3d_flags>
0

> <s_epik_input>
Tz1DMVtOSF1DKD1PKVtOSF1DKD1PKUMxMltDQEBIXTNOKFtDSDJdW0NAQEhdKFtDSDNdKU9bQ0BIXTNbQ0gzXSljNGMoW0NIMl0yKVtjSF1jNWMoYzRGKW9uYzVPW0NIMl1bQ0BASF02W0NIMl1PQyg9TylbTkhdNg==

> <s_epik_cmdline>
J2VwaWtfcHl0aG9uJywgJy1waHQnLCAnMC41JywgJy1waCcsICc3LjUnLCAnLXRuJywgJzgnLCAnLW1hJywgJzUwMCcsICctaW1hZScsICc8aW5maWxlLm1hZT4nLCAnLW9tYWUnLCAnPG91dGZpbGUubWFlPic=

> <r_lp_tautomer_probability>
1

> <r_epik_Ionization_Penalty>
0.455392

> <r_epik_Ionization_Penalty_Charging>
0.455373

> <r_epik_Ionization_Penalty_Neutral>
1.8759e-05

> <r_epik_State_Penalty>
0.458483

> <r_epik_Charging_Adjusted_Penalty>
0.913857

> <i_epik_Tot_Q>
-1

> <i_epik_Tot_abs_Q>
1

> <s_epik_Chemistry_Notes>
This compound has an ester and may undergo hydrolysis at high or low pH.

> <s_lp_Force_Field>
S-OPLS

> <r_lp_Energy>
38.0582

> <b_lp_Chiralities_Consistent>
1

> <s_lp_Variant>
ligprep_h3d.sdf:989-2

> <ROCS_ShapeQuery>
_7L13

> <ROCS_TanimotoCombo>
0.774 

> <ROCS_ShapeTanimoto>
0.655 

> <ROCS_ColorTanimoto>
0.119 

> <ROCS_RefTversky>
0.804 

> <ROCS_RefColorTversky>
0.294 

> <ROCS_RefTverskyCombo>
1.098 

> <ROCS_FitTversky>
0.780 

> <ROCS_FitColorTversky>
0.166 

> <ROCS_FitTverskyCombo>
0.946 

> <ROCS_ColorScore>
-2.764

> <ROCS_Overlap>
1336.772

> <ROCS_Rank>
182                 

$$$$
ligprep_h3d.sdf:1575_1612
  -OEChem-08212117123D

 67 71  0     0  0  0  0  0  0999 V2000
  -25.8313   -5.3031  -22.7441 C   0  0  0  0  0  0  0  0  0  0  0  0
  -25.5474   -5.1340  -24.0992 C   0  0  0  0  0  0  0  0  0  0  0  0
  -24.9041   -4.9026  -21.7819 C   0  0  0  0  0  0  0  0  0  0  0  0
  -22.4373   -2.8139  -30.5008 C   0  0  0  0  0  0  0  0  0  0  0  0
  -21.4057   -4.9510  -30.8918 C   0  0  0  0  0  0  0  0  0  0  0  0
  -23.4090   -4.1642  -23.5302 C   0  0  0  0  0  0  0  0  0  0  0  0
  -20.5418   -4.3775  -27.9762 C   0  0  0  0  0  0  0  0  0  0  0  0
  -22.5135   -2.6596  -31.8756 C   0  0  0  0  0  0  0  0  0  0  0  0
  -21.8714   -3.9843  -30.0076 C   0  0  0  0  0  0  0  0  0  0  0  0
  -24.3362   -4.5646  -24.4923 C   0  0  0  0  0  0  0  0  0  0  0  0
  -23.6929   -4.3332  -22.1750 C   0  0  0  0  0  0  0  0  0  0  0  0
  -21.7674   -4.1936  -28.5832 C   0  0  0  0  0  0  0  0  0  0  0  0
  -20.5749   -4.5674  -26.6098 C   0  0  0  0  0  0  0  0  0  0  0  0
  -21.5282   -4.7011  -32.2491 C   0  0  0  0  0  0  0  0  0  0  0  0
  -22.8409   -4.3887  -26.5890 C   0  0  0  0  0  0  0  0  0  0  0  0
  -20.3997   -7.7848  -35.5239 C   0  0  0  0  0  0  0  0  0  0  0  0
  -19.8796   -6.7975  -36.5311 C   0  0  0  0  0  0  0  0  0  0  0  0
  -19.3510   -5.5886  -24.7440 C   0  0  0  0  0  0  0  0  0  0  0  0
  -18.3258   -3.7131  -26.0195 C   0  0  0  0  0  0  0  0  0  0  0  0
  -17.9674   -6.1737  -24.4956 C   0  0  0  0  0  0  0  0  0  0  0  0
  -16.9434   -4.2999  -25.7636 C   0  0  0  0  0  0  0  0  0  0  0  0
  -19.8330   -6.4700  -35.0644 C   0  0  0  0  0  0  0  0  0  0  0  0
  -15.5858   -5.5544  -24.0895 C   0  0  0  0  0  0  0  0  0  0  0  0
  -21.5183   -5.2652  -20.7066 C   0  0  0  0  0  0  0  0  0  0  0  0
  -20.7301   -5.4211  -34.5009 C   0  0  0  0  0  0  0  0  0  0  0  0
  -22.0719   -3.5763  -32.7657 N   0  0  0  0  0  0  0  0  0  0  0  0
  -22.9410   -4.1934  -27.9177 N   0  0  0  0  0  0  0  0  0  0  0  0
  -21.7107   -4.5788  -25.8818 N   0  0  0  0  0  0  0  0  0  0  0  0
  -19.3522   -4.7584  -25.9557 N   0  0  0  0  0  0  0  0  0  0  0  0
  -24.0497   -4.3947  -25.8597 N   0  0  0  0  0  0  0  0  0  0  0  0
  -21.0512   -5.6961  -33.1385 N   0  0  0  0  0  0  0  0  0  0  0  0
  -16.9546   -5.0575  -24.4608 N   0  3  0  0  0  0  0  0  0  0  0  0
  -21.6977   -2.7922  -21.5593 O   0  0  0  0  0  0  0  0  0  0  0  0
  -23.2344   -3.5691  -19.7206 O   0  0  0  0  0  0  0  0  0  0  0  0
  -22.5335   -3.8289  -20.9707 S   0  0  0  0  0  0  0  0  0  0  0  0
  -26.7742   -5.7462  -22.4378 H   0  0  0  0  0  0  0  0  0  0  0  0
  -26.2770   -5.4500  -24.8403 H   0  0  0  0  0  0  0  0  0  0  0  0
  -25.1357   -5.0380  -20.7288 H   0  0  0  0  0  0  0  0  0  0  0  0
  -22.8111   -2.0364  -29.8421 H   0  0  0  0  0  0  0  0  0  0  0  0
  -20.9592   -5.8731  -30.5302 H   0  0  0  0  0  0  0  0  0  0  0  0
  -22.4643   -3.7202  -23.8365 H   0  0  0  0  0  0  0  0  0  0  0  0
  -19.6137   -4.3734  -28.5361 H   0  0  0  0  0  0  0  0  0  0  0  0
  -22.9449   -1.7642  -32.3110 H   0  0  0  0  0  0  0  0  0  0  0  0
  -21.4710   -7.9345  -35.4722 H   0  0  0  0  0  0  0  0  0  0  0  0
  -19.8128   -8.6770  -35.3432 H   0  0  0  0  0  0  0  0  0  0  0  0
  -18.9439   -7.0274  -37.0258 H   0  0  0  0  0  0  0  0  0  0  0  0
  -20.6027   -6.2860  -37.1544 H   0  0  0  0  0  0  0  0  0  0  0  0
  -20.0649   -6.4146  -24.8525 H   0  0  0  0  0  0  0  0  0  0  0  0
  -19.6683   -4.9901  -23.8799 H   0  0  0  0  0  0  0  0  0  0  0  0
  -18.5432   -2.9288  -25.2825 H   0  0  0  0  0  0  0  0  0  0  0  0
  -18.3270   -3.2429  -27.0107 H   0  0  0  0  0  0  0  0  0  0  0  0
  -17.9333   -6.6785  -23.5244 H   0  0  0  0  0  0  0  0  0  0  0  0
  -17.6702   -6.8763  -25.2825 H   0  0  0  0  0  0  0  0  0  0  0  0
  -16.6390   -4.9937  -26.5556 H   0  0  0  0  0  0  0  0  0  0  0  0
  -16.1990   -3.5018  -25.6732 H   0  0  0  0  0  0  0  0  0  0  0  0
  -18.8657   -6.4828  -34.5767 H   0  0  0  0  0  0  0  0  0  0  0  0
  -15.2635   -6.2542  -24.8627 H   0  0  0  0  0  0  0  0  0  0  0  0
  -14.9194   -4.6913  -24.0387 H   0  0  0  0  0  0  0  0  0  0  0  0
  -15.6618   -6.0493  -23.1194 H   0  0  0  0  0  0  0  0  0  0  0  0
  -20.7634   -5.0204  -19.9577 H   0  0  0  0  0  0  0  0  0  0  0  0
  -22.1560   -6.0778  -20.3554 H   0  0  0  0  0  0  0  0  0  0  0  0
  -21.0456   -5.5314  -21.6532 H   0  0  0  0  0  0  0  0  0  0  0  0
  -20.2244   -4.4461  -34.5608 H   0  0  0  0  0  0  0  0  0  0  0  0
  -21.6590   -5.3891  -35.0893 H   0  0  0  0  0  0  0  0  0  0  0  0
  -24.8720   -4.2467  -26.4364 H   0  0  0  0  0  0  0  0  0  0  0  0
  -20.9479   -6.6176  -32.7653 H   0  0  0  0  0  0  0  0  0  0  0  0
  -17.2386   -4.4008  -23.7205 H   0  0  0  0  0  0  0  0  0  0  0  0
  1  2  1  0  0  0  0
  1  3  2  0  0  0  0
  2 10  2  0  0  0  0
  3 11  1  0  0  0  0
  4  8  1  0  0  0  0
  4  9  2  0  0  0  0
  5  9  1  0  0  0  0
  5 14  2  0  0  0  0
  6 10  1  0  0  0  0
  6 11  2  0  0  0  0
  7 12  1  0  0  0  0
  7 13  2  0  0  0  0
  8 26  2  0  0  0  0
  9 12  1  0  0  0  0
 10 30  1  0  0  0  0
 11 35  1  0  0  0  0
 12 27  2  0  0  0  0
 13 28  1  0  0  0  0
 13 29  1  0  0  0  0
 14 26  1  0  0  0  0
 14 31  1  0  0  0  0
 15 27  1  0  0  0  0
 15 28  2  0  0  0  0
 15 30  1  0  0  0  0
 16 17  1  0  0  0  0
 16 22  1  0  0  0  0
 17 22  1  0  0  0  0
 18 20  1  0  0  0  0
 18 29  1  0  0  0  0
 19 21  1  0  0  0  0
 19 29  1  0  0  0  0
 20 32  1  0  0  0  0
 21 32  1  0  0  0  0
 22 25  1  0  0  0  0
 23 32  1  0  0  0  0
 24 35  1  0  0  0  0
 25 31  1  0  0  0  0
 33 35  2  0  0  0  0
 34 35  2  0  0  0  0
  1 36  1  0  0  0  0
  2 37  1  0  0  0  0
  3 38  1  0  0  0  0
  4 39  1  0  0  0  0
  5 40  1  0  0  0  0
  6 41  1  0  0  0  0
  7 42  1  0  0  0  0
  8 43  1  0  0  0  0
 16 44  1  0  0  0  0
 16 45  1  0  0  0  0
 17 46  1  0  0  0  0
 17 47  1  0  0  0  0
 18 48  1  0  0  0  0
 18 49  1  0  0  0  0
 19 50  1  0  0  0  0
 19 51  1  0  0  0  0
 20 52  1  0  0  0  0
 20 53  1  0  0  0  0
 21 54  1  0  0  0  0
 21 55  1  0  0  0  0
 22 56  1  0  0  0  0
 23 57  1  0  0  0  0
 23 58  1  0  0  0  0
 23 59  1  0  0  0  0
 24 60  1  0  0  0  0
 24 61  1  0  0  0  0
 24 62  1  0  0  0  0
 25 63  1  0  0  0  0
 25 64  1  0  0  0  0
 30 65  1  0  0  0  0
 31 66  1  0  0  0  0
 32 67  1  0  0  0  0
M  CHG  1  32   1
M  END
> <SMILES>
CN1CCN(CC1)c1cc(nc(n1)Nc1cccc(c1)S(=O)(=O)C)-c1ccnc(c1)NCC1CC1

> <FORMATTED_ID>
H3D-014932

> <MOLFORMULA>
C25H31N7O2S

> <Exact Mass>
493.23

> <XLogP>
2.33

> <TPSA_NOPS>
111.7

> <s_m_source_file>
ligprep_h3d.sdf

> <i_m_source_file_index>
1575

> <i_lp_mmshare_version>
55123

> <i_f3d_flags>
0

> <s_epik_input>
W0NIMl0xW0NIMl1bQ0hdMVtDSDJdW05IXWMoW2NIXTIpbltjSF1bY0hdYzItYyhbY0hdYzNOKFtDSDJdW0NIMl00KVtDSDJdW0NIMl1ONFtDSDNdKW5jKG4zKVtOSF1jNVtjSF1bY0hdW2NIXWMoW2NIXTUpUyg9TykoPU8pW0NIM10=

> <s_epik_cmdline>
J2VwaWtfcHl0aG9uJywgJy1waHQnLCAnMC41JywgJy1waCcsICc3LjUnLCAnLXRuJywgJzgnLCAnLW1hJywgJzUwMCcsICctaW1hZScsICc8aW5maWxlLm1hZT4nLCAnLW9tYWUnLCAnPG91dGZpbGUubWFlPic=

> <r_lp_tautomer_probability>
0.999999

> <r_epik_Ionization_Penalty>
0.470658

> <r_epik_Ionization_Penalty_Charging>
0.459246

> <r_epik_Ionization_Penalty_Neutral>
0.0114118

> <r_epik_State_Penalty>
0.302615

> <r_epik_Charging_Adjusted_Penalty>
0.761861

> <i_epik_Tot_Q>
1

> <i_epik_Tot_abs_Q>
1

> <s_lp_Force_Field>
S-OPLS

> <r_lp_Energy>
61.0636

> <b_lp_Chiralities_Consistent>
1

> <s_lp_Variant>
ligprep_h3d.sdf:1575-1

> <ROCS_ShapeQuery>
_7L13

> <ROCS_TanimotoCombo>
0.803 

> <ROCS_ShapeTanimoto>
0.700 

> <ROCS_ColorTanimoto>
0.103 

> <ROCS_RefTversky>
0.804 

> <ROCS_RefColorTversky>
0.223 

> <ROCS_RefTverskyCombo>
1.027 

> <ROCS_FitTversky>
0.845 

> <ROCS_FitColorTversky>
0.160 

> <ROCS_FitTverskyCombo>
1.006 

> <ROCS_ColorScore>
-2.056

> <ROCS_Overlap>
1330.880

> <ROCS_Rank>
183                 

$$$$
ligprep_h3d.sdf:1284_1763
  -OEChem-08212117123D

 69 74  0     1  0  0  0  0  0999 V2000
  -20.1420   -3.8217  -32.2614 C   0  0  0  0  0  0  0  0  0  0  0  0
  -20.6617   -6.1754  -32.0981 C   0  0  0  0  0  0  0  0  0  0  0  0
  -19.6114   -4.0272  -33.5349 C   0  0  0  0  0  0  0  0  0  0  0  0
  -20.1311   -6.3810  -33.3716 C   0  0  0  0  0  0  0  0  0  0  0  0
  -16.9068   -6.0136  -26.5903 C   0  0  0  0  0  0  0  0  0  0  0  0
  -23.1088   -4.1664  -28.8051 C   0  0  0  0  0  0  0  0  0  0  0  0
  -20.7434   -4.4521  -25.4002 C   0  0  0  0  0  0  0  0  0  0  0  0
  -16.7508   -4.6177  -26.6854 C   0  0  0  0  0  0  0  0  0  0  0  0
  -20.9613   -4.5711  -27.8050 C   0  0  0  0  0  0  0  0  0  0  0  0
  -20.6672   -4.8958  -31.5430 C   0  0  0  0  0  0  0  0  0  0  0  0
  -21.2199   -4.6817  -30.2159 C   0  0  0  0  0  0  0  0  0  0  0  0
  -19.6059   -5.3068  -34.0900 C   0  0  0  0  0  0  0  0  0  0  0  0
  -22.5676   -4.3743  -30.0762 C   0  0  0  0  0  0  0  0  0  0  0  0
  -20.4167   -4.7802  -29.0834 C   0  0  0  0  0  0  0  0  0  0  0  0
  -22.3289   -4.2589  -27.6556 C   0  0  0  0  0  0  0  0  0  0  0  0
  -20.1757   -4.6641  -26.6483 C   0  0  0  0  0  0  0  0  0  0  0  0
  -22.0897   -4.1517  -25.3542 C   0  0  0  0  0  0  0  0  0  0  0  0
  -18.2665   -6.2061  -26.5638 C   0  0  0  0  0  0  0  0  0  0  0  0
  -18.7182   -8.0067  -35.8063 C   0  0  0  0  0  0  0  0  0  0  0  0
  -22.7467   -3.9197  -24.0793 C   0  0  0  0  0  0  0  0  0  0  0  0
  -26.1340   -4.8833  -22.5468 C   0  0  0  0  0  0  0  0  0  0  0  0
  -24.9142   -5.0831  -21.6978 C   0  0  0  0  0  0  0  0  0  0  0  0
  -20.7857   -8.4463  -36.9001 C   0  0  0  0  0  0  0  0  0  0  0  0
  -20.5228   -6.9535  -36.9125 C   0  0  0  0  0  0  0  0  0  0  0  0
  -19.4043   -9.0493  -36.6685 C   0  0  2  0  0  0  0  0  0  0  0  0
  -24.9003   -4.0613  -22.8016 C   0  0  0  0  0  0  0  0  0  0  0  0
  -23.4749   -4.2549  -31.2594 C   0  0  0  0  0  0  0  0  0  0  0  0
  -18.9695   -5.1157  -29.3126 C   0  0  0  0  0  0  0  0  0  0  0  0
  -19.0584   -7.4485  -26.4728 C   0  0  0  0  0  0  0  0  0  0  0  0
  -19.0384   -5.5266  -35.4515 C   0  0  0  0  0  0  0  0  0  0  0  0
  -17.9181   -3.9694  -26.7173 N   0  0  0  0  0  0  0  0  0  0  0  0
  -22.8826   -4.0525  -26.4457 N   0  0  0  0  0  0  0  0  0  0  0  0
  -18.8206   -4.9623  -26.6419 N   0  0  0  0  0  0  0  0  0  0  0  0
  -19.4102   -6.8119  -36.0015 N   0  0  0  0  0  0  0  0  0  0  0  0
  -24.1037   -4.2542  -23.9920 N   0  0  0  0  0  0  0  0  0  0  0  0
  -17.7404   -8.2091  -35.1025 O   0  0  0  0  0  0  0  0  0  0  0  0
  -22.1194   -3.4252  -23.1249 O   0  0  0  0  0  0  0  0  0  0  0  0
  -19.4968  -10.2952  -36.0267 O   0  0  0  0  0  0  0  0  0  0  0  0
  -20.1384   -2.8183  -31.8421 H   0  0  0  0  0  0  0  0  0  0  0  0
  -21.0680   -7.0228  -31.5508 H   0  0  0  0  0  0  0  0  0  0  0  0
  -19.2033   -3.1847  -34.0869 H   0  0  0  0  0  0  0  0  0  0  0  0
  -20.1315   -7.3813  -33.7967 H   0  0  0  0  0  0  0  0  0  0  0  0
  -16.1391   -6.7724  -26.5475 H   0  0  0  0  0  0  0  0  0  0  0  0
  -24.1673   -3.9262  -28.7105 H   0  0  0  0  0  0  0  0  0  0  0  0
  -20.1571   -4.5181  -24.4878 H   0  0  0  0  0  0  0  0  0  0  0  0
  -15.8350   -4.0461  -26.7329 H   0  0  0  0  0  0  0  0  0  0  0  0
  -26.3893   -5.6643  -23.2525 H   0  0  0  0  0  0  0  0  0  0  0  0
  -26.9861   -4.3877  -22.0978 H   0  0  0  0  0  0  0  0  0  0  0  0
  -24.9446   -4.7222  -20.6771 H   0  0  0  0  0  0  0  0  0  0  0  0
  -24.3509   -5.9982  -21.8339 H   0  0  0  0  0  0  0  0  0  0  0  0
  -21.4690   -8.7156  -36.0849 H   0  0  0  0  0  0  0  0  0  0  0  0
  -21.2347   -8.7996  -37.8335 H   0  0  0  0  0  0  0  0  0  0  0  0
  -20.2108   -6.5983  -37.8994 H   0  0  0  0  0  0  0  0  0  0  0  0
  -21.3852   -6.3808  -36.5613 H   0  0  0  0  0  0  0  0  0  0  0  0
  -18.8539   -9.1509  -37.6104 H   0  0  0  0  0  0  0  0  0  0  0  0
  -24.9390   -3.0199  -22.5006 H   0  0  0  0  0  0  0  0  0  0  0  0
  -23.4818   -3.2232  -31.6273 H   0  0  0  0  0  0  0  0  0  0  0  0
  -23.1518   -4.9158  -32.0720 H   0  0  0  0  0  0  0  0  0  0  0  0
  -24.5005   -4.5426  -31.0001 H   0  0  0  0  0  0  0  0  0  0  0  0
  -18.8342   -6.2000  -29.2993 H   0  0  0  0  0  0  0  0  0  0  0  0
  -18.6297   -4.7248  -30.2756 H   0  0  0  0  0  0  0  0  0  0  0  0
  -18.3413   -4.6675  -28.5376 H   0  0  0  0  0  0  0  0  0  0  0  0
  -19.2612   -7.7142  -25.4224 H   0  0  0  0  0  0  0  0  0  0  0  0
  -20.0292   -7.3591  -26.9894 H   0  0  0  0  0  0  0  0  0  0  0  0
  -18.5417   -8.3037  -26.9412 H   0  0  0  0  0  0  0  0  0  0  0  0
  -19.3835   -4.7549  -36.1539 H   0  0  0  0  0  0  0  0  0  0  0  0
  -17.9407   -5.4793  -35.4430 H   0  0  0  0  0  0  0  0  0  0  0  0
  -24.5838   -4.5955  -24.8183 H   0  0  0  0  0  0  0  0  0  0  0  0
  -19.9457  -10.9107  -36.6366 H   0  0  0  0  0  0  0  0  0  0  0  0
  1  3  1  0  0  0  0
  1 10  2  0  0  0  0
  2  4  2  0  0  0  0
  2 10  1  0  0  0  0
  3 12  2  0  0  0  0
  4 12  1  0  0  0  0
  5  8  1  0  0  0  0
  5 18  2  0  0  0  0
  6 13  2  0  0  0  0
  6 15  1  0  0  0  0
  7 16  1  0  0  0  0
  7 17  2  0  0  0  0
  8 31  2  0  0  0  0
  9 14  1  0  0  0  0
  9 15  1  0  0  0  0
  9 16  2  0  0  0  0
 10 11  1  0  0  0  0
 11 13  1  0  0  0  0
 11 14  2  0  0  0  0
 12 30  1  0  0  0  0
 13 27  1  0  0  0  0
 14 28  1  0  0  0  0
 15 32  2  0  0  0  0
 16 33  1  0  0  0  0
 17 20  1  0  0  0  0
 17 32  1  0  0  0  0
 18 29  1  0  0  0  0
 18 33  1  0  0  0  0
 19 25  1  0  0  0  0
 19 34  1  0  0  0  0
 19 36  2  0  0  0  0
 20 35  1  0  0  0  0
 20 37  2  0  0  0  0
 21 22  1  0  0  0  0
 21 26  1  0  0  0  0
 22 26  1  0  0  0  0
 23 24  1  0  0  0  0
 23 25  1  0  0  0  0
 24 34  1  0  0  0  0
 25 38  1  0  0  0  0
 26 35  1  0  0  0  0
 30 34  1  0  0  0  0
 31 33  1  0  0  0  0
  1 39  1  0  0  0  0
  2 40  1  0  0  0  0
  3 41  1  0  0  0  0
  4 42  1  0  0  0  0
  5 43  1  0  0  0  0
  6 44  1  0  0  0  0
  7 45  1  0  0  0  0
  8 46  1  0  0  0  0
 21 47  1  0  0  0  0
 21 48  1  0  0  0  0
 22 49  1  0  0  0  0
 22 50  1  0  0  0  0
 23 51  1  0  0  0  0
 23 52  1  0  0  0  0
 24 53  1  0  0  0  0
 24 54  1  0  0  0  0
 25 55  1  0  0  0  0
 26 56  1  0  0  0  0
 27 57  1  0  0  0  0
 27 58  1  0  0  0  0
 27 59  1  0  0  0  0
 28 60  1  0  0  0  0
 28 61  1  0  0  0  0
 28 62  1  0  0  0  0
 29 63  1  0  0  0  0
 29 64  1  0  0  0  0
 29 65  1  0  0  0  0
 30 66  1  0  0  0  0
 30 67  1  0  0  0  0
 35 68  1  0  0  0  0
 38 69  1  0  0  0  0
M  END
> <SMILES>
Cc1cc2nc(cc(c2c(c1-c1ccc(cc1)CN1CC[C@H](O)C1=O)C)-n1nccc1C)C(=O)NC1CC1

> <FORMATTED_ID>
H3D-008607

> <MOLFORMULA>
C30H31N5O3

> <Exact Mass>
509.24

> <XLogP>
4.08

> <TPSA_NOPS>
100.3

> <s_m_source_file>
ligprep_h3d.sdf

> <i_m_source_file_index>
1284

> <i_lp_mmshare_version>
55123

> <i_f3d_flags>
0

> <s_epik_input>
W0NIMl0xW0NIMl1bQ0hdMVtOSF1DKD1PKWMobjIpW2NIXWMoLW4zbltjSF1bY0hdYzNbQ0gzXSljKGMyNCljKFtDSDNdKWMoYyhbQ0gzXSlbY0hdNCktYzVbY0hdW2NIXWMoW2NIXVtjSF01KVtDSDJdTjZbQ0gyXVtDSDJdW0NASF0oW09IXSlDNj1P

> <s_epik_cmdline>
J2VwaWtfcHl0aG9uJywgJy1waHQnLCAnMC41JywgJy1waCcsICc3LjUnLCAnLXRuJywgJzgnLCAnLW1hJywgJzUwMCcsICctaW1hZScsICc8aW5maWxlLm1hZT4nLCAnLW9tYWUnLCAnPG91dGZpbGUubWFlPic=

> <r_lp_tautomer_probability>
1

> <r_epik_Ionization_Penalty>
0.000263484

> <r_epik_Ionization_Penalty_Charging>
0

> <r_epik_Ionization_Penalty_Neutral>
0.000263484

> <r_epik_State_Penalty>
-0

> <r_epik_Charging_Adjusted_Penalty>
0

> <i_epik_Tot_Q>
0

> <i_epik_Tot_abs_Q>
0

> <s_lp_Force_Field>
S-OPLS

> <r_lp_Energy>
50.8029

> <b_lp_Chiralities_Consistent>
1

> <s_lp_Variant>
ligprep_h3d.sdf:1284-1

> <ROCS_ShapeQuery>
_7L13

> <ROCS_TanimotoCombo>
0.745 

> <ROCS_ShapeTanimoto>
0.638 

> <ROCS_ColorTanimoto>
0.107 

> <ROCS_RefTversky>
0.804 

> <ROCS_RefColorTversky>
0.221 

> <ROCS_RefTverskyCombo>
1.025 

> <ROCS_FitTversky>
0.756 

> <ROCS_FitColorTversky>
0.171 

> <ROCS_FitTverskyCombo>
0.927 

> <ROCS_ColorScore>
-2.024

> <ROCS_Overlap>
1339.011

> <ROCS_Rank>
184                 

$$$$
ligprep_h3d.sdf:1084_277
  -OEChem-08212117123D

 62 67  0     1  0  0  0  0  0999 V2000
  -20.9563   -5.1218  -29.4953 C   0  0  0  0  0  0  0  0  0  0  0  0
  -21.7513   -4.3612  -30.3553 C   0  0  0  0  0  0  0  0  0  0  0  0
  -21.0734   -4.9160  -28.0995 C   0  0  0  0  0  0  0  0  0  0  0  0
  -21.9977   -4.0016  -27.5416 C   0  0  0  0  0  0  0  0  0  0  0  0
  -22.6196   -3.4432  -29.8065 C   0  0  0  0  0  0  0  0  0  0  0  0
  -22.7715   -3.2267  -28.4368 C   0  0  0  0  0  0  0  0  0  0  0  0
  -21.9515   -4.2247  -31.7416 C   0  0  0  0  0  0  0  0  0  0  0  0
  -18.8966   -3.8311  -26.2100 C   0  0  0  0  0  0  0  0  0  0  0  0
  -19.3022   -7.6165  -36.6833 C   0  0  0  0  0  0  0  0  0  0  0  0
  -19.1873   -6.0751  -25.0250 C   0  0  0  0  0  0  0  0  0  0  0  0
  -17.0196   -5.1321  -25.7850 C   0  0  0  0  0  0  0  0  0  0  0  0
  -20.2006   -5.7473  -27.1981 C   0  0  0  0  0  0  0  0  0  0  0  0
  -20.1286   -8.4643  -35.7465 C   0  0  0  0  0  0  0  0  0  0  0  0
  -20.0829   -7.6781  -34.4398 C   0  0  0  0  0  0  0  0  0  0  0  0
  -23.3886   -3.4493  -25.5636 C   0  0  0  0  0  0  0  0  0  0  0  0
  -21.1802   -4.5420  -25.2129 C   0  0  2  0  0  0  0  0  0  0  0  0
  -19.9659   -6.2306  -34.8978 C   0  0  1  0  0  0  0  0  0  0  0  0
  -23.1388   -2.6221  -24.3041 C   0  0  1  0  0  0  0  0  0  0  0  0
  -21.0182   -3.6236  -23.9618 C   0  0  2  0  0  0  0  0  0  0  0  0
  -19.8470   -5.0077  -25.8857 C   0  0  2  0  0  0  0  0  0  0  0  0
  -24.4452   -2.3098  -23.5861 C   0  0  0  0  0  0  0  0  0  0  0  0
  -20.1985   -4.2101  -22.8197 C   0  0  0  0  0  0  0  0  0  0  0  0
  -19.2840   -5.3339  -33.8815 C   0  0  0  0  0  0  0  0  0  0  0  0
  -20.0102   -5.3390  -32.5451 C   0  0  0  0  0  0  0  0  0  0  0  0
  -22.8660   -3.2946  -32.0326 N   0  0  0  0  0  0  0  0  0  0  0  0
  -17.6176   -4.1351  -26.4372 N   0  5  0  0  0  0  0  0  0  0  0  0
  -17.8091   -6.0212  -25.0598 N   0  0  0  0  0  0  0  0  0  0  0  0
  -19.2198   -6.3448  -36.1251 N   0  0  0  0  0  0  0  0  0  0  0  0
  -22.0992   -3.8420  -26.1558 N   0  0  1  0  0  0  0  0  0  0  0  0
  -19.3410   -2.6937  -26.3668 O   0  0  0  0  0  0  0  0  0  0  0  0
  -18.8377   -7.9883  -37.7498 O   0  0  0  0  0  0  0  0  0  0  0  0
  -19.8062   -6.9475  -24.4194 O   0  0  0  0  0  0  0  0  0  0  0  0
  -15.7990   -5.3118  -25.8101 O   0  0  0  0  0  0  0  0  0  0  0  0
  -23.2851   -2.7985  -30.8036 O   0  0  0  0  0  0  0  0  0  0  0  0
  -22.3144   -3.3561  -23.4007 O   0  0  0  0  0  0  0  0  0  0  0  0
  -21.3570   -4.8814  -32.7466 O   0  0  0  0  0  0  0  0  0  0  0  0
  -23.5685   -2.2261  -28.0435 F   0  0  0  0  0  0  0  0  0  0  0  0
  -20.2543   -5.8497  -29.8921 H   0  0  0  0  0  0  0  0  0  0  0  0
  -20.7375   -6.6825  -26.9865 H   0  0  0  0  0  0  0  0  0  0  0  0
  -19.2828   -6.0309  -27.7307 H   0  0  0  0  0  0  0  0  0  0  0  0
  -21.1502   -8.5760  -36.1176 H   0  0  0  0  0  0  0  0  0  0  0  0
  -19.6554   -9.4458  -35.6459 H   0  0  0  0  0  0  0  0  0  0  0  0
  -21.0241   -7.8198  -33.8976 H   0  0  0  0  0  0  0  0  0  0  0  0
  -19.2651   -8.0022  -33.7929 H   0  0  0  0  0  0  0  0  0  0  0  0
  -23.9250   -4.3719  -25.3037 H   0  0  0  0  0  0  0  0  0  0  0  0
  -24.0560   -2.8858  -26.2124 H   0  0  0  0  0  0  0  0  0  0  0  0
  -21.7292   -5.4377  -24.8857 H   0  0  0  0  0  0  0  0  0  0  0  0
  -20.9654   -5.8198  -35.1395 H   0  0  0  0  0  0  0  0  0  0  0  0
  -22.6460   -1.6744  -24.5578 H   0  0  0  0  0  0  0  0  0  0  0  0
  -20.5662   -2.6622  -24.2318 H   0  0  0  0  0  0  0  0  0  0  0  0
  -24.9563   -3.2357  -23.3221 H   0  0  0  0  0  0  0  0  0  0  0  0
  -25.0944   -1.7197  -24.2331 H   0  0  0  0  0  0  0  0  0  0  0  0
  -24.2446   -1.7446  -22.6758 H   0  0  0  0  0  0  0  0  0  0  0  0
  -20.6143   -5.1713  -22.5174 H   0  0  0  0  0  0  0  0  0  0  0  0
  -20.2131   -3.5340  -21.9647 H   0  0  0  0  0  0  0  0  0  0  0  0
  -19.1661   -4.3556  -23.1380 H   0  0  0  0  0  0  0  0  0  0  0  0
  -19.2297   -4.3087  -34.2669 H   0  0  0  0  0  0  0  0  0  0  0  0
  -18.2459   -5.6565  -33.7374 H   0  0  0  0  0  0  0  0  0  0  0  0
  -20.0447   -6.3483  -32.1227 H   0  0  0  0  0  0  0  0  0  0  0  0
  -19.5186   -4.6709  -31.8307 H   0  0  0  0  0  0  0  0  0  0  0  0
  -17.3156   -6.7058  -24.4939 H   0  0  0  0  0  0  0  0  0  0  0  0
  -18.6700   -5.5945  -36.5242 H   0  0  0  0  0  0  0  0  0  0  0  0
  1  2  2  0  0  0  0
  1  3  1  0  0  0  0
  2  5  1  0  0  0  0
  2  7  1  0  0  0  0
  3  4  2  0  0  0  0
  3 12  1  0  0  0  0
  4  6  1  0  0  0  0
  4 29  1  0  0  0  0
  5  6  2  0  0  0  0
  5 34  1  0  0  0  0
  6 37  1  0  0  0  0
  7 25  2  0  0  0  0
  7 36  1  0  0  0  0
  8 20  1  0  0  0  0
  8 26  1  0  0  0  0
  8 30  2  0  0  0  0
  9 13  1  0  0  0  0
  9 28  1  0  0  0  0
  9 31  2  0  0  0  0
 10 20  1  0  0  0  0
 10 27  1  0  0  0  0
 10 32  2  0  0  0  0
 11 26  1  0  0  0  0
 11 27  1  0  0  0  0
 11 33  2  0  0  0  0
 12 20  1  0  0  0  0
 13 14  1  0  0  0  0
 14 17  1  0  0  0  0
 15 18  1  0  0  0  0
 15 29  1  0  0  0  0
 16 19  1  0  0  0  0
 16 20  1  0  0  0  0
 16 29  1  0  0  0  0
 17 23  1  0  0  0  0
 17 28  1  0  0  0  0
 18 21  1  0  0  0  0
 18 35  1  0  0  0  0
 19 22  1  0  0  0  0
 19 35  1  0  0  0  0
 23 24  1  0  0  0  0
 24 36  1  0  0  0  0
 25 34  1  0  0  0  0
  1 38  1  0  0  0  0
 12 39  1  0  0  0  0
 12 40  1  0  0  0  0
 13 41  1  0  0  0  0
 13 42  1  0  0  0  0
 14 43  1  0  0  0  0
 14 44  1  0  0  0  0
 15 45  1  0  0  0  0
 15 46  1  0  0  0  0
 16 47  1  0  0  0  0
 17 48  1  0  0  0  0
 18 49  1  0  0  0  0
 19 50  1  0  0  0  0
 21 51  1  0  0  0  0
 21 52  1  0  0  0  0
 21 53  1  0  0  0  0
 22 54  1  0  0  0  0
 22 55  1  0  0  0  0
 22 56  1  0  0  0  0
 23 57  1  0  0  0  0
 23 58  1  0  0  0  0
 24 59  1  0  0  0  0
 24 60  1  0  0  0  0
 27 61  1  0  0  0  0
 28 62  1  0  0  0  0
M  CHG  1  26  -1
M  END
> <SMILES>
C[C@@H]1CN2[C@H]([C@H](C)O1)C1(Cc3cc4c(noc4c(c32)F)OCC[C@@H]2CCC(=O)N2)C(=O)NC(=O)NC1=O

> <FORMATTED_ID>
H3D-006693

> <MOLFORMULA>
C24H26FN5O7

> <Exact Mass>
515.18

> <XLogP>
0.71

> <TPSA_NOPS>
152.4

> <s_m_source_file>
ligprep_h3d.sdf

> <i_m_source_file_index>
1084

> <i_lp_mmshare_version>
55123

> <i_f3d_flags>
0

> <s_epik_input>
Tz1DMVtOSF1DKD1PKVtOSF1DKD1PKUMxMltDQEBIXTNOKFtDSDJdW0NAQEhdKFtDSDNdKU9bQ0BIXTNbQ0gzXSljNGMoW0NIMl0yKVtjSF1jNWMoYzRGKW9uYzVPW0NIMl1bQ0gyXVtDQEBIXTZbQ0gyXVtDSDJdQyg9TylbTkhdNg==

> <s_epik_cmdline>
J2VwaWtfcHl0aG9uJywgJy1waHQnLCAnMC41JywgJy1waCcsICc3LjUnLCAnLXRuJywgJzgnLCAnLW1hJywgJzUwMCcsICctaW1hZScsICc8aW5maWxlLm1hZT4nLCAnLW9tYWUnLCAnPG91dGZpbGUubWFlPic=

> <r_lp_tautomer_probability>
1

> <r_epik_Ionization_Penalty>
0.45539

> <r_epik_Ionization_Penalty_Charging>
0.455373

> <r_epik_Ionization_Penalty_Neutral>
1.68334e-05

> <r_epik_State_Penalty>
0.458483

> <r_epik_Charging_Adjusted_Penalty>
0.913857

> <i_epik_Tot_Q>
-1

> <i_epik_Tot_abs_Q>
1

> <s_lp_Force_Field>
S-OPLS

> <r_lp_Energy>
42.0256

> <b_lp_Chiralities_Consistent>
1

> <s_lp_Variant>
ligprep_h3d.sdf:1084-2

> <ROCS_ShapeQuery>
_7L13

> <ROCS_TanimotoCombo>
0.762 

> <ROCS_ShapeTanimoto>
0.647 

> <ROCS_ColorTanimoto>
0.115 

> <ROCS_RefTversky>
0.803 

> <ROCS_RefColorTversky>
0.286 

> <ROCS_RefTverskyCombo>
1.090 

> <ROCS_FitTversky>
0.768 

> <ROCS_FitColorTversky>
0.162 

> <ROCS_FitTverskyCombo>
0.930 

> <ROCS_ColorScore>
-2.692

> <ROCS_Overlap>
1337.423

> <ROCS_Rank>
185                 

$$$$
ligprep_h3d.sdf:5337_1104
  -OEChem-08212117123D

 75 81  0     0  0  0  0  0  0999 V2000
  -19.5904   -6.4824  -36.0286 C   0  0  0  0  0  0  0  0  0  0  0  0
  -20.4045   -7.1321  -35.1009 C   0  0  0  0  0  0  0  0  0  0  0  0
  -18.7239   -5.4727  -35.6097 C   0  0  0  0  0  0  0  0  0  0  0  0
  -20.3523   -6.7721  -33.7543 C   0  0  0  0  0  0  0  0  0  0  0  0
  -18.6717   -5.1126  -34.2631 C   0  0  0  0  0  0  0  0  0  0  0  0
  -26.9284   -5.1968  -23.3087 C   0  0  0  0  0  0  0  0  0  0  0  0
  -22.7529   -3.7026  -28.9216 C   0  0  0  0  0  0  0  0  0  0  0  0
  -20.1423   -4.6886  -29.3016 C   0  0  0  0  0  0  0  0  0  0  0  0
  -27.9539   -5.6503  -22.5156 C   0  0  0  0  0  0  0  0  0  0  0  0
  -15.1447   -7.3196  -26.1123 C   0  0  0  0  0  0  0  0  0  0  0  0
  -14.5461   -6.3755  -25.3198 C   0  0  0  0  0  0  0  0  0  0  0  0
  -21.9820   -4.1192  -27.8430 C   0  0  0  0  0  0  0  0  0  0  0  0
  -19.4859   -5.7623  -33.3354 C   0  0  0  0  0  0  0  0  0  0  0  0
  -20.6824   -4.6089  -28.0231 C   0  0  0  0  0  0  0  0  0  0  0  0
  -22.2063   -3.7749  -30.2022 C   0  0  0  0  0  0  0  0  0  0  0  0
  -20.9092   -4.2661  -30.3911 C   0  0  0  0  0  0  0  0  0  0  0  0
  -25.9918   -4.6643  -22.4026 C   0  0  0  0  0  0  0  0  0  0  0  0
  -16.5958   -5.6789  -25.7647 C   0  0  0  0  0  0  0  0  0  0  0  0
  -17.8853   -4.9452  -25.8749 C   0  0  0  0  0  0  0  0  0  0  0  0
  -18.5771   -6.8252  -27.2476 C   0  0  0  0  0  0  0  0  0  0  0  0
  -17.3998   -7.4684  -27.1312 C   0  0  0  0  0  0  0  0  0  0  0  0
  -18.8569   -5.5251  -26.6127 C   0  0  0  0  0  0  0  0  0  0  0  0
  -23.9037   -5.3756  -24.7097 C   0  0  0  0  0  0  0  0  0  0  0  0
  -23.3792   -2.9205  -24.4106 C   0  0  0  0  0  0  0  0  0  0  0  0
  -23.3980   -5.3095  -26.1538 C   0  0  0  0  0  0  0  0  0  0  0  0
  -22.9118   -2.8374  -25.8648 C   0  0  0  0  0  0  0  0  0  0  0  0
  -20.9844   -4.5259  -25.7370 C   0  0  0  0  0  0  0  0  0  0  0  0
  -24.4269   -4.0197  -24.2344 C   0  0  0  0  0  0  0  0  0  0  0  0
  -22.3663   -4.1825  -26.3831 C   0  0  0  0  0  0  0  0  0  0  0  0
  -28.3428   -5.6639  -20.0401 C   0  0  0  0  0  0  0  0  0  0  0  0
  -22.8407   -1.9988  -31.6509 C   0  0  0  0  0  0  0  0  0  0  0  0
  -19.4294   -5.3744  -31.8871 C   0  0  0  0  0  0  0  0  0  0  0  0
  -26.3873   -4.7690  -21.1311 N   0  0  0  0  0  0  0  0  0  0  0  0
  -16.4195   -6.8648  -26.3767 N   0  0  0  0  0  0  0  0  0  0  0  0
  -27.5838   -5.3725  -21.2326 N   0  0  0  0  0  0  0  0  0  0  0  0
  -15.4664   -5.3728  -25.1208 N   0  3  0  0  0  0  0  0  0  0  0  0
  -20.0815   -4.9760  -26.8034 N   0  0  0  0  0  0  0  0  0  0  0  0
  -24.8049   -4.1048  -22.8402 N   0  0  0  0  0  0  0  0  0  0  0  0
  -22.9508   -3.3681  -31.2690 O   0  0  0  0  0  0  0  0  0  0  0  0
  -20.3788   -4.3387  -31.6454 O   0  0  0  0  0  0  0  0  0  0  0  0
  -19.6302   -6.7638  -37.0769 H   0  0  0  0  0  0  0  0  0  0  0  0
  -21.0784   -7.9191  -35.4267 H   0  0  0  0  0  0  0  0  0  0  0  0
  -18.0891   -4.9674  -36.3315 H   0  0  0  0  0  0  0  0  0  0  0  0
  -20.9905   -7.2837  -33.0386 H   0  0  0  0  0  0  0  0  0  0  0  0
  -17.9937   -4.3247  -33.9459 H   0  0  0  0  0  0  0  0  0  0  0  0
  -26.8756   -5.2488  -24.3869 H   0  0  0  0  0  0  0  0  0  0  0  0
  -23.7645   -3.3375  -28.7754 H   0  0  0  0  0  0  0  0  0  0  0  0
  -19.1379   -5.0657  -29.4679 H   0  0  0  0  0  0  0  0  0  0  0  0
  -28.8914   -6.1347  -22.7514 H   0  0  0  0  0  0  0  0  0  0  0  0
  -14.8362   -8.2601  -26.5281 H   0  0  0  0  0  0  0  0  0  0  0  0
  -13.5851   -6.2636  -24.8581 H   0  0  0  0  0  0  0  0  0  0  0  0
  -18.0050   -3.9924  -25.3742 H   0  0  0  0  0  0  0  0  0  0  0  0
  -19.3699   -7.2771  -27.8371 H   0  0  0  0  0  0  0  0  0  0  0  0
  -17.1842   -8.4230  -27.5933 H   0  0  0  0  0  0  0  0  0  0  0  0
  -24.7007   -6.1270  -24.6477 H   0  0  0  0  0  0  0  0  0  0  0  0
  -23.0961   -5.7203  -24.0525 H   0  0  0  0  0  0  0  0  0  0  0  0
  -22.5172   -3.1064  -23.7577 H   0  0  0  0  0  0  0  0  0  0  0  0
  -23.7994   -1.9507  -24.1167 H   0  0  0  0  0  0  0  0  0  0  0  0
  -22.9758   -6.2840  -26.4320 H   0  0  0  0  0  0  0  0  0  0  0  0
  -24.2642   -5.1566  -26.8120 H   0  0  0  0  0  0  0  0  0  0  0  0
  -23.7618   -2.5134  -26.4797 H   0  0  0  0  0  0  0  0  0  0  0  0
  -22.1541   -2.0490  -25.9601 H   0  0  0  0  0  0  0  0  0  0  0  0
  -20.5419   -3.6376  -25.2667 H   0  0  0  0  0  0  0  0  0  0  0  0
  -21.0692   -5.2923  -24.9585 H   0  0  0  0  0  0  0  0  0  0  0  0
  -25.3201   -3.7579  -24.8139 H   0  0  0  0  0  0  0  0  0  0  0  0
  -28.0573   -6.6607  -19.6938 H   0  0  0  0  0  0  0  0  0  0  0  0
  -28.1204   -4.9150  -19.2748 H   0  0  0  0  0  0  0  0  0  0  0  0
  -29.4106   -5.6305  -20.2741 H   0  0  0  0  0  0  0  0  0  0  0  0
  -23.4844   -1.8072  -32.5128 H   0  0  0  0  0  0  0  0  0  0  0  0
  -21.8014   -1.7718  -31.9012 H   0  0  0  0  0  0  0  0  0  0  0  0
  -23.1578   -1.3702  -30.8154 H   0  0  0  0  0  0  0  0  0  0  0  0
  -19.6619   -6.2294  -31.2431 H   0  0  0  0  0  0  0  0  0  0  0  0
  -18.4297   -5.0146  -31.6207 H   0  0  0  0  0  0  0  0  0  0  0  0
  -15.3114   -4.5321  -24.5713 H   0  0  0  0  0  0  0  0  0  0  0  0
  -24.1618   -3.7344  -22.1525 H   0  0  0  0  0  0  0  0  0  0  0  0
  1  2  2  0  0  0  0
  1  3  1  0  0  0  0
  2  4  1  0  0  0  0
  3  5  2  0  0  0  0
  4 13  2  0  0  0  0
  5 13  1  0  0  0  0
  6  9  2  0  0  0  0
  6 17  1  0  0  0  0
  7 12  1  0  0  0  0
  7 15  2  0  0  0  0
  8 14  1  0  0  0  0
  8 16  2  0  0  0  0
  9 35  1  0  0  0  0
 10 11  2  0  0  0  0
 10 34  1  0  0  0  0
 11 36  1  0  0  0  0
 12 14  2  0  0  0  0
 12 29  1  0  0  0  0
 13 32  1  0  0  0  0
 14 37  1  0  0  0  0
 15 16  1  0  0  0  0
 15 39  1  0  0  0  0
 16 40  1  0  0  0  0
 17 33  2  0  0  0  0
 17 38  1  0  0  0  0
 18 19  1  0  0  0  0
 18 34  1  0  0  0  0
 18 36  2  0  0  0  0
 19 22  2  0  0  0  0
 20 21  2  0  0  0  0
 20 22  1  0  0  0  0
 21 34  1  0  0  0  0
 22 37  1  0  0  0  0
 23 25  1  0  0  0  0
 23 28  1  0  0  0  0
 24 26  1  0  0  0  0
 24 28  1  0  0  0  0
 25 29  1  0  0  0  0
 26 29  1  0  0  0  0
 27 29  1  0  0  0  0
 27 37  1  0  0  0  0
 28 38  1  0  0  0  0
 30 35  1  0  0  0  0
 31 39  1  0  0  0  0
 32 40  1  0  0  0  0
 33 35  1  0  0  0  0
  1 41  1  0  0  0  0
  2 42  1  0  0  0  0
  3 43  1  0  0  0  0
  4 44  1  0  0  0  0
  5 45  1  0  0  0  0
  6 46  1  0  0  0  0
  7 47  1  0  0  0  0
  8 48  1  0  0  0  0
  9 49  1  0  0  0  0
 10 50  1  0  0  0  0
 11 51  1  0  0  0  0
 19 52  1  0  0  0  0
 20 53  1  0  0  0  0
 21 54  1  0  0  0  0
 23 55  1  0  0  0  0
 23 56  1  0  0  0  0
 24 57  1  0  0  0  0
 24 58  1  0  0  0  0
 25 59  1  0  0  0  0
 25 60  1  0  0  0  0
 26 61  1  0  0  0  0
 26 62  1  0  0  0  0
 27 63  1  0  0  0  0
 27 64  1  0  0  0  0
 28 65  1  0  0  0  0
 30 66  1  0  0  0  0
 30 67  1  0  0  0  0
 30 68  1  0  0  0  0
 31 69  1  0  0  0  0
 31 70  1  0  0  0  0
 31 71  1  0  0  0  0
 32 72  1  0  0  0  0
 32 73  1  0  0  0  0
 36 74  1  0  0  0  0
 38 75  1  0  0  0  0
M  CHG  1  36   1
M  END
> <SMILES>
COc1cc2c(cc1OCc1ccccc1)N(CC12CCC(CC1)Nc1ccn(n1)C)c1ccn2ccnc2c1

> <FORMATTED_ID>
H3D-014950

> <MOLFORMULA>
C32H34N6O2

> <Exact Mass>
534.27

> <XLogP>
7.42

> <TPSA_NOPS>
68.8

> <s_m_source_file>
ligprep_h3d.sdf

> <i_m_source_file_index>
5337

> <i_lp_mmshare_version>
55123

> <i_f3d_flags>
0

> <s_epik_input>
W2NIXTFbY0hdW2NIXVtjSF1bY0hdYzFbQ0gyXU9jKGMoW2NIXTIpT1tDSDNdKVtjSF1jKE4oW0NIMl0zKWMoW2NIXVtjSF00KVtjSF1jKG40NSluW2NIXVtjSF01KWMyW0NAXTM2W0NIMl1bQ0gyXVtDQEhdKFtDSDJdW0NIMl02KVtOSF1jN1tjSF1bY0hdbihuNylbQ0gzXQ==

> <s_epik_cmdline>
J2VwaWtfcHl0aG9uJywgJy1waHQnLCAnMC41JywgJy1waCcsICc3LjUnLCAnLXRuJywgJzgnLCAnLW1hJywgJzUwMCcsICctaW1hZScsICc8aW5maWxlLm1hZT4nLCAnLW9tYWUnLCAnPG91dGZpbGUubWFlPic=

> <r_lp_tautomer_probability>
1

> <r_epik_Ionization_Penalty>
0.321855

> <r_epik_Ionization_Penalty_Charging>
0

> <r_epik_Ionization_Penalty_Neutral>
0.321855

> <r_epik_State_Penalty>
0.314585

> <r_epik_Charging_Adjusted_Penalty>
0.314585

> <i_epik_Tot_Q>
1

> <i_epik_Tot_abs_Q>
1

> <s_lp_Force_Field>
S-OPLS

> <r_lp_Energy>
68.2977

> <b_lp_Chiralities_Consistent>
1

> <s_lp_Variant>
ligprep_h3d.sdf:5337-1

> <ROCS_ShapeQuery>
_7L13

> <ROCS_TanimotoCombo>
0.717 

> <ROCS_ShapeTanimoto>
0.611 

> <ROCS_ColorTanimoto>
0.106 

> <ROCS_RefTversky>
0.803 

> <ROCS_RefColorTversky>
0.230 

> <ROCS_RefTverskyCombo>
1.033 

> <ROCS_FitTversky>
0.719 

> <ROCS_FitColorTversky>
0.165 

> <ROCS_FitTverskyCombo>
0.883 

> <ROCS_ColorScore>
-2.113

> <ROCS_Overlap>
1342.557

> <ROCS_Rank>
186                 

$$$$
ligprep_h3d.sdf:1112_1823
  -OEChem-08212117123D

 59 64  0     1  0  0  0  0  0999 V2000
  -20.9299   -5.0949  -29.5082 C   0  0  0  0  0  0  0  0  0  0  0  0
  -21.7213   -4.3519  -30.3867 C   0  0  0  0  0  0  0  0  0  0  0  0
  -21.0546   -4.8622  -28.1174 C   0  0  0  0  0  0  0  0  0  0  0  0
  -21.9784   -3.9342  -27.5812 C   0  0  0  0  0  0  0  0  0  0  0  0
  -22.5947   -3.4259  -29.8600 C   0  0  0  0  0  0  0  0  0  0  0  0
  -22.7540   -3.1831  -28.4955 C   0  0  0  0  0  0  0  0  0  0  0  0
  -21.9154   -4.2433  -31.7763 C   0  0  0  0  0  0  0  0  0  0  0  0
  -18.9032   -3.7066  -26.2330 C   0  0  0  0  0  0  0  0  0  0  0  0
  -19.7542   -7.1737  -35.8050 C   0  0  0  0  0  0  0  0  0  0  0  0
  -19.1578   -5.9324  -25.0155 C   0  0  0  0  0  0  0  0  0  0  0  0
  -17.0099   -4.9842  -25.8276 C   0  0  0  0  0  0  0  0  0  0  0  0
  -20.1764   -5.6650  -27.1954 C   0  0  0  0  0  0  0  0  0  0  0  0
  -19.7414   -8.5620  -35.2121 C   0  0  0  0  0  0  0  0  0  0  0  0
  -20.0562   -8.3111  -33.7406 C   0  0  0  0  0  0  0  0  0  0  0  0
  -23.0924   -2.8437  -25.6439 C   0  0  0  0  0  0  0  0  0  0  0  0
  -21.1808   -4.4400  -25.2374 C   0  0  2  0  0  0  0  0  0  0  0  0
  -20.9373   -7.0695  -33.7706 C   0  0  1  0  0  0  0  0  0  0  0  0
  -23.4523   -3.1817  -24.1942 C   0  0  1  0  0  0  0  0  0  0  0  0
  -21.0617   -3.5041  -23.9988 C   0  0  2  0  0  0  0  0  0  0  0  0
  -19.8366   -4.8930  -25.8965 C   0  0  2  0  0  0  0  0  0  0  0  0
  -24.3907   -4.3822  -24.0865 C   0  0  0  0  0  0  0  0  0  0  0  0
  -20.0860   -3.9406  -22.9132 C   0  0  0  0  0  0  0  0  0  0  0  0
  -20.8690   -6.2553  -32.4922 C   0  0  0  0  0  0  0  0  0  0  0  0
  -22.8328   -3.3234  -32.0897 N   0  0  0  0  0  0  0  0  0  0  0  0
  -17.6282   -4.0052  -26.4894 N   0  5  0  0  0  0  0  0  0  0  0  0
  -17.7798   -5.8651  -25.0701 N   0  0  0  0  0  0  0  0  0  0  0  0
  -20.4343   -6.3503  -34.9133 N   0  0  0  0  0  0  0  0  0  0  0  0
  -22.0963   -3.7687  -26.1990 N   0  0  3  0  0  0  0  0  0  0  0  0
  -19.3561   -2.5700  -26.3664 O   0  0  0  0  0  0  0  0  0  0  0  0
  -19.2848   -6.8631  -36.8887 O   0  0  0  0  0  0  0  0  0  0  0  0
  -19.7610   -6.7950  -24.3810 O   0  0  0  0  0  0  0  0  0  0  0  0
  -15.7887   -5.1553  -25.8721 O   0  0  0  0  0  0  0  0  0  0  0  0
  -23.2600   -2.8055  -30.8725 O   0  0  0  0  0  0  0  0  0  0  0  0
  -22.3324   -3.4048  -23.3424 O   0  0  0  0  0  0  0  0  0  0  0  0
  -21.3132   -4.9167  -32.7656 O   0  0  0  0  0  0  0  0  0  0  0  0
  -23.5599   -2.1805  -28.1257 F   0  0  0  0  0  0  0  0  0  0  0  0
  -20.2253   -5.8295  -29.8872 H   0  0  0  0  0  0  0  0  0  0  0  0
  -20.7038   -6.6010  -26.9657 H   0  0  0  0  0  0  0  0  0  0  0  0
  -19.2533   -5.9490  -27.7176 H   0  0  0  0  0  0  0  0  0  0  0  0
  -20.4939   -9.1972  -35.6858 H   0  0  0  0  0  0  0  0  0  0  0  0
  -18.7454   -8.9953  -35.3455 H   0  0  0  0  0  0  0  0  0  0  0  0
  -20.6241   -9.1583  -33.3410 H   0  0  0  0  0  0  0  0  0  0  0  0
  -19.1516   -8.1940  -33.1403 H   0  0  0  0  0  0  0  0  0  0  0  0
  -24.0001   -2.9184  -26.2776 H   0  0  0  0  0  0  0  0  0  0  0  0
  -22.8209   -1.7771  -25.6792 H   0  0  0  0  0  0  0  0  0  0  0  0
  -21.7221   -5.3424  -24.9103 H   0  0  0  0  0  0  0  0  0  0  0  0
  -21.9898   -7.3464  -33.9730 H   0  0  0  0  0  0  0  0  0  0  0  0
  -24.0351   -2.2999  -23.7539 H   0  0  0  0  0  0  0  0  0  0  0  0
  -20.7694   -2.4827  -24.3024 H   0  0  0  0  0  0  0  0  0  0  0  0
  -23.9057   -5.2719  -24.4885 H   0  0  0  0  0  0  0  0  0  0  0  0
  -25.3047   -4.1928  -24.6495 H   0  0  0  0  0  0  0  0  0  0  0  0
  -24.6488   -4.5613  -23.0426 H   0  0  0  0  0  0  0  0  0  0  0  0
  -20.3301   -4.9479  -22.5755 H   0  0  0  0  0  0  0  0  0  0  0  0
  -20.1436   -3.2594  -22.0642 H   0  0  0  0  0  0  0  0  0  0  0  0
  -19.0679   -3.9352  -23.3027 H   0  0  0  0  0  0  0  0  0  0  0  0
  -19.8421   -6.2160  -32.1166 H   0  0  0  0  0  0  0  0  0  0  0  0
  -21.5150   -6.6912  -31.7243 H   0  0  0  0  0  0  0  0  0  0  0  0
  -17.2715   -6.5303  -24.4954 H   0  0  0  0  0  0  0  0  0  0  0  0
  -20.5355   -5.3514  -35.0418 H   0  0  0  0  0  0  0  0  0  0  0  0
  1  2  2  0  0  0  0
  1  3  1  0  0  0  0
  2  5  1  0  0  0  0
  2  7  1  0  0  0  0
  3  4  2  0  0  0  0
  3 12  1  0  0  0  0
  4  6  1  0  0  0  0
  4 28  1  0  0  0  0
  5  6  2  0  0  0  0
  5 33  1  0  0  0  0
  6 36  1  0  0  0  0
  7 24  2  0  0  0  0
  7 35  1  0  0  0  0
  8 20  1  0  0  0  0
  8 25  1  0  0  0  0
  8 29  2  0  0  0  0
  9 13  1  0  0  0  0
  9 27  1  0  0  0  0
  9 30  2  0  0  0  0
 10 20  1  0  0  0  0
 10 26  1  0  0  0  0
 10 31  2  0  0  0  0
 11 25  1  0  0  0  0
 11 26  1  0  0  0  0
 11 32  2  0  0  0  0
 12 20  1  0  0  0  0
 13 14  1  0  0  0  0
 14 17  1  0  0  0  0
 15 18  1  0  0  0  0
 15 28  1  0  0  0  0
 16 19  1  0  0  0  0
 16 20  1  0  0  0  0
 16 28  1  0  0  0  0
 17 23  1  0  0  0  0
 17 27  1  0  0  0  0
 18 21  1  0  0  0  0
 18 34  1  0  0  0  0
 19 22  1  0  0  0  0
 19 34  1  0  0  0  0
 23 35  1  0  0  0  0
 24 33  1  0  0  0  0
  1 37  1  0  0  0  0
 12 38  1  0  0  0  0
 12 39  1  0  0  0  0
 13 40  1  0  0  0  0
 13 41  1  0  0  0  0
 14 42  1  0  0  0  0
 14 43  1  0  0  0  0
 15 44  1  0  0  0  0
 15 45  1  0  0  0  0
 16 46  1  0  0  0  0
 17 47  1  0  0  0  0
 18 48  1  0  0  0  0
 19 49  1  0  0  0  0
 21 50  1  0  0  0  0
 21 51  1  0  0  0  0
 21 52  1  0  0  0  0
 22 53  1  0  0  0  0
 22 54  1  0  0  0  0
 22 55  1  0  0  0  0
 23 56  1  0  0  0  0
 23 57  1  0  0  0  0
 26 58  1  0  0  0  0
 27 59  1  0  0  0  0
M  CHG  1  25  -1
M  END
> <SMILES>
CC1CN2C(C(C)O1)C1(Cc3cc4c(noc4c(c32)F)OC[C@@H]2CCC(=O)N2)C(=O)NC(=O)NC1=O

> <FORMATTED_ID>
H3D-006973

> <MOLFORMULA>
C23H24FN5O7

> <Exact Mass>
501.17

> <XLogP>
0.26

> <TPSA_NOPS>
152.4

> <s_m_source_file>
ligprep_h3d.sdf

> <i_m_source_file_index>
1112

> <i_lp_mmshare_version>
55123

> <i_f3d_flags>
0

> <s_epik_input>
Tz1DMVtOSF1DKD1PKVtOSF1DKD1PKUMxMltDQEBIXTNOKFtDSDJdW0NAQEhdKFtDSDNdKU9bQ0BIXTNbQ0gzXSljNGMoW0NIMl0yKVtjSF1jNWMoYzRGKW9uYzVPW0NIMl1bQ0BASF02W0NIMl1bQ0gyXUMoPU8pW05IXTY=

> <s_epik_cmdline>
J2VwaWtfcHl0aG9uJywgJy1waHQnLCAnMC41JywgJy1waCcsICc3LjUnLCAnLXRuJywgJzgnLCAnLW1hJywgJzUwMCcsICctaW1hZScsICc8aW5maWxlLm1hZT4nLCAnLW9tYWUnLCAnPG91dGZpbGUubWFlPic=

> <r_lp_tautomer_probability>
1

> <r_epik_Ionization_Penalty>
0.455391

> <r_epik_Ionization_Penalty_Charging>
0.455373

> <r_epik_Ionization_Penalty_Neutral>
1.78231e-05

> <r_epik_State_Penalty>
0.458483

> <r_epik_Charging_Adjusted_Penalty>
0.913857

> <i_epik_Tot_Q>
-1

> <i_epik_Tot_abs_Q>
1

> <s_lp_Force_Field>
S-OPLS

> <r_lp_Energy>
44.3856

> <b_lp_Chiralities_Consistent>
1

> <s_lp_Variant>
ligprep_h3d.sdf:1112-2

> <ROCS_ShapeQuery>
_7L13

> <ROCS_TanimotoCombo>
0.776 

> <ROCS_ShapeTanimoto>
0.657 

> <ROCS_ColorTanimoto>
0.119 

> <ROCS_RefTversky>
0.803 

> <ROCS_RefColorTversky>
0.294 

> <ROCS_RefTverskyCombo>
1.097 

> <ROCS_FitTversky>
0.783 

> <ROCS_FitColorTversky>
0.166 

> <ROCS_FitTverskyCombo>
0.949 

> <ROCS_ColorScore>
-2.763

> <ROCS_Overlap>
1335.649

> <ROCS_Rank>
187                 

$$$$
ligprep_h3d.sdf:1084_277
  -OEChem-08212117123D

 63 68  0     1  0  0  0  0  0999 V2000
  -20.9458   -5.1030  -29.5036 C   0  0  0  0  0  0  0  0  0  0  0  0
  -21.7502   -4.3510  -30.3620 C   0  0  0  0  0  0  0  0  0  0  0  0
  -21.0654   -4.9030  -28.1066 C   0  0  0  0  0  0  0  0  0  0  0  0
  -22.0013   -4.0025  -27.5457 C   0  0  0  0  0  0  0  0  0  0  0  0
  -22.6302   -3.4462  -29.8106 C   0  0  0  0  0  0  0  0  0  0  0  0
  -22.7846   -3.2355  -28.4401 C   0  0  0  0  0  0  0  0  0  0  0  0
  -21.9520   -4.2133  -31.7479 C   0  0  0  0  0  0  0  0  0  0  0  0
  -19.2595   -7.5571  -36.6990 C   0  0  0  0  0  0  0  0  0  0  0  0
  -18.9154   -3.8479  -26.1762 C   0  0  0  0  0  0  0  0  0  0  0  0
  -19.2164   -6.1466  -25.0430 C   0  0  0  0  0  0  0  0  0  0  0  0
  -16.9672   -5.3107  -25.6887 C   0  0  0  0  0  0  0  0  0  0  0  0
  -20.1790   -5.7286  -27.2128 C   0  0  0  0  0  0  0  0  0  0  0  0
  -20.0751   -8.4180  -35.7646 C   0  0  0  0  0  0  0  0  0  0  0  0
  -20.0394   -7.6350  -34.4557 C   0  0  0  0  0  0  0  0  0  0  0  0
  -23.3885   -3.4401  -25.5650 C   0  0  0  0  0  0  0  0  0  0  0  0
  -21.1936   -4.5558  -25.2169 C   0  0  2  0  0  0  0  0  0  0  0  0
  -19.9408   -6.1849  -34.9097 C   0  0  1  0  0  0  0  0  0  0  0  0
  -23.1281   -2.6134  -24.3070 C   0  0  1  0  0  0  0  0  0  0  0  0
  -21.0187   -3.6367  -23.9690 C   0  0  2  0  0  0  0  0  0  0  0  0
  -19.8591   -5.0235  -25.8730 C   0  0  0  0  0  0  0  0  0  0  0  0
  -24.4300   -2.2878  -23.5864 C   0  0  0  0  0  0  0  0  0  0  0  0
  -20.1995   -4.2325  -22.8309 C   0  0  0  0  0  0  0  0  0  0  0  0
  -19.2705   -5.2824  -33.8908 C   0  0  0  0  0  0  0  0  0  0  0  0
  -19.9966   -5.3005  -32.5544 C   0  0  0  0  0  0  0  0  0  0  0  0
  -22.8786   -3.2944  -32.0363 N   0  0  0  0  0  0  0  0  0  0  0  0
  -17.5644   -4.1556  -26.1713 N   0  0  0  0  0  0  0  0  0  0  0  0
  -17.8360   -6.2339  -25.1259 N   0  0  0  0  0  0  0  0  0  0  0  0
  -19.1933   -6.2861  -36.1372 N   0  0  0  0  0  0  0  0  0  0  0  0
  -22.1043   -3.8471  -26.1599 N   0  0  1  0  0  0  0  0  0  0  0  0
  -18.7902   -7.9200  -37.7665 O   0  0  0  0  0  0  0  0  0  0  0  0
  -19.3157   -2.7219  -26.4732 O   0  0  0  0  0  0  0  0  0  0  0  0
  -19.8782   -6.9728  -24.4129 O   0  0  0  0  0  0  0  0  0  0  0  0
  -15.7480   -5.4867  -25.7220 O   0  0  0  0  0  0  0  0  0  0  0  0
  -23.3041   -2.8073  -30.8059 O   0  0  0  0  0  0  0  0  0  0  0  0
  -22.3086   -3.3530  -23.4038 O   0  0  0  0  0  0  0  0  0  0  0  0
  -21.3492   -4.8596  -32.7547 O   0  0  0  0  0  0  0  0  0  0  0  0
  -23.5950   -2.2454  -28.0482 F   0  0  0  0  0  0  0  0  0  0  0  0
  -20.2342   -5.8206  -29.9024 H   0  0  0  0  0  0  0  0  0  0  0  0
  -20.6896   -6.6859  -27.0381 H   0  0  0  0  0  0  0  0  0  0  0  0
  -19.2445   -5.9633  -27.7409 H   0  0  0  0  0  0  0  0  0  0  0  0
  -21.0952   -8.5417  -36.1362 H   0  0  0  0  0  0  0  0  0  0  0  0
  -19.5893   -9.3937  -35.6668 H   0  0  0  0  0  0  0  0  0  0  0  0
  -20.9788   -7.7902  -33.9140 H   0  0  0  0  0  0  0  0  0  0  0  0
  -19.2175   -7.9505  -33.8097 H   0  0  0  0  0  0  0  0  0  0  0  0
  -23.9334   -4.3571  -25.3021 H   0  0  0  0  0  0  0  0  0  0  0  0
  -24.0530   -2.8704  -26.2104 H   0  0  0  0  0  0  0  0  0  0  0  0
  -21.7506   -5.4464  -24.8908 H   0  0  0  0  0  0  0  0  0  0  0  0
  -20.9455   -5.7861  -35.1502 H   0  0  0  0  0  0  0  0  0  0  0  0
  -22.6275   -1.6707  -24.5635 H   0  0  0  0  0  0  0  0  0  0  0  0
  -20.5547   -2.6825  -24.2461 H   0  0  0  0  0  0  0  0  0  0  0  0
  -24.9488   -3.2086  -23.3195 H   0  0  0  0  0  0  0  0  0  0  0  0
  -25.0752   -1.6930  -24.2330 H   0  0  0  0  0  0  0  0  0  0  0  0
  -24.2220   -1.7228  -22.6777 H   0  0  0  0  0  0  0  0  0  0  0  0
  -20.6278   -5.1864  -22.5229 H   0  0  0  0  0  0  0  0  0  0  0  0
  -20.1976   -3.5538  -21.9780 H   0  0  0  0  0  0  0  0  0  0  0  0
  -19.1719   -4.3947  -23.1565 H   0  0  0  0  0  0  0  0  0  0  0  0
  -19.2293   -4.2555  -34.2732 H   0  0  0  0  0  0  0  0  0  0  0  0
  -18.2284   -5.5922  -33.7475 H   0  0  0  0  0  0  0  0  0  0  0  0
  -20.0182   -6.3114  -32.1349 H   0  0  0  0  0  0  0  0  0  0  0  0
  -19.5136   -4.6282  -31.8381 H   0  0  0  0  0  0  0  0  0  0  0  0
  -16.9412   -3.4565  -26.5655 H   0  0  0  0  0  0  0  0  0  0  0  0
  -17.4075   -7.0393  -24.6784 H   0  0  0  0  0  0  0  0  0  0  0  0
  -18.6531   -5.5277  -36.5342 H   0  0  0  0  0  0  0  0  0  0  0  0
  1  2  2  0  0  0  0
  1  3  1  0  0  0  0
  2  5  1  0  0  0  0
  2  7  1  0  0  0  0
  3  4  2  0  0  0  0
  3 12  1  0  0  0  0
  4  6  1  0  0  0  0
  4 29  1  0  0  0  0
  5  6  2  0  0  0  0
  5 34  1  0  0  0  0
  6 37  1  0  0  0  0
  7 25  2  0  0  0  0
  7 36  1  0  0  0  0
  8 13  1  0  0  0  0
  8 28  1  0  0  0  0
  8 30  2  0  0  0  0
  9 20  1  0  0  0  0
  9 26  1  0  0  0  0
  9 31  2  0  0  0  0
 10 20  1  0  0  0  0
 10 27  1  0  0  0  0
 10 32  2  0  0  0  0
 11 26  1  0  0  0  0
 11 27  1  0  0  0  0
 11 33  2  0  0  0  0
 12 20  1  0  0  0  0
 13 14  1  0  0  0  0
 14 17  1  0  0  0  0
 15 18  1  0  0  0  0
 15 29  1  0  0  0  0
 16 19  1  0  0  0  0
 16 20  1  0  0  0  0
 16 29  1  0  0  0  0
 17 23  1  0  0  0  0
 17 28  1  0  0  0  0
 18 21  1  0  0  0  0
 18 35  1  0  0  0  0
 19 22  1  0  0  0  0
 19 35  1  0  0  0  0
 23 24  1  0  0  0  0
 24 36  1  0  0  0  0
 25 34  1  0  0  0  0
  1 38  1  0  0  0  0
 12 39  1  0  0  0  0
 12 40  1  0  0  0  0
 13 41  1  0  0  0  0
 13 42  1  0  0  0  0
 14 43  1  0  0  0  0
 14 44  1  0  0  0  0
 15 45  1  0  0  0  0
 15 46  1  0  0  0  0
 16 47  1  0  0  0  0
 17 48  1  0  0  0  0
 18 49  1  0  0  0  0
 19 50  1  0  0  0  0
 21 51  1  0  0  0  0
 21 52  1  0  0  0  0
 21 53  1  0  0  0  0
 22 54  1  0  0  0  0
 22 55  1  0  0  0  0
 22 56  1  0  0  0  0
 23 57  1  0  0  0  0
 23 58  1  0  0  0  0
 24 59  1  0  0  0  0
 24 60  1  0  0  0  0
 26 61  1  0  0  0  0
 27 62  1  0  0  0  0
 28 63  1  0  0  0  0
M  END
> <SMILES>
C[C@@H]1CN2[C@H]([C@H](C)O1)C1(Cc3cc4c(noc4c(c32)F)OCC[C@@H]2CCC(=O)N2)C(=O)NC(=O)NC1=O

> <FORMATTED_ID>
H3D-006693

> <MOLFORMULA>
C24H26FN5O7

> <Exact Mass>
515.18

> <XLogP>
0.71

> <TPSA_NOPS>
152.4

> <s_m_source_file>
ligprep_h3d.sdf

> <i_m_source_file_index>
1084

> <i_lp_mmshare_version>
55123

> <i_f3d_flags>
0

> <s_epik_input>
Tz1DMVtOSF1DKD1PKVtOSF1DKD1PKUMxMltDQEBIXTNOKFtDSDJdW0NAQEhdKFtDSDNdKU9bQ0BIXTNbQ0gzXSljNGMoW0NIMl0yKVtjSF1jNWMoYzRGKW9uYzVPW0NIMl1bQ0gyXVtDQEBIXTZbQ0gyXVtDSDJdQyg9TylbTkhdNg==

> <s_epik_cmdline>
J2VwaWtfcHl0aG9uJywgJy1waHQnLCAnMC41JywgJy1waCcsICc3LjUnLCAnLXRuJywgJzgnLCAnLW1hJywgJzUwMCcsICctaW1hZScsICc8aW5maWxlLm1hZT4nLCAnLW9tYWUnLCAnPG91dGZpbGUubWFlPic=

> <r_lp_tautomer_probability>
1

> <r_epik_Ionization_Penalty>
0.369127

> <r_epik_Ionization_Penalty_Charging>
0

> <r_epik_Ionization_Penalty_Neutral>
0.369127

> <r_epik_State_Penalty>
0.366447

> <r_epik_Charging_Adjusted_Penalty>
0.366447

> <i_epik_Tot_Q>
0

> <i_epik_Tot_abs_Q>
0

> <s_lp_Force_Field>
S-OPLS

> <r_lp_Energy>
34.8766

> <b_lp_Chiralities_Consistent>
1

> <s_lp_Variant>
ligprep_h3d.sdf:1084-1

> <ROCS_ShapeQuery>
_7L13

> <ROCS_TanimotoCombo>
0.768 

> <ROCS_ShapeTanimoto>
0.648 

> <ROCS_ColorTanimoto>
0.120 

> <ROCS_RefTversky>
0.803 

> <ROCS_RefColorTversky>
0.288 

> <ROCS_RefTverskyCombo>
1.091 

> <ROCS_FitTversky>
0.770 

> <ROCS_FitColorTversky>
0.171 

> <ROCS_FitTverskyCombo>
0.942 

> <ROCS_ColorScore>
-2.691

> <ROCS_Overlap>
1336.855

> <ROCS_Rank>
188                 

$$$$
ligprep_h3d.sdf:5150_710
  -OEChem-08212117123D

 66 71  0     0  0  0  0  0  0999 V2000
  -25.9374   -4.1479  -22.4638 C   0  0  0  0  0  0  0  0  0  0  0  0
  -19.5361   -6.7502  -35.8406 C   0  0  0  0  0  0  0  0  0  0  0  0
  -20.2007   -7.4634  -34.8430 C   0  0  0  0  0  0  0  0  0  0  0  0
  -18.8583   -5.5731  -35.5227 C   0  0  0  0  0  0  0  0  0  0  0  0
  -20.1877   -6.9995  -33.5276 C   0  0  0  0  0  0  0  0  0  0  0  0
  -18.8453   -5.1093  -34.2073 C   0  0  0  0  0  0  0  0  0  0  0  0
  -23.0046   -4.0423  -28.8457 C   0  0  0  0  0  0  0  0  0  0  0  0
  -20.2693   -4.5830  -29.2421 C   0  0  0  0  0  0  0  0  0  0  0  0
  -14.7065   -5.4838  -26.0286 C   0  0  0  0  0  0  0  0  0  0  0  0
  -14.7313   -6.6895  -25.3779 C   0  0  0  0  0  0  0  0  0  0  0  0
  -22.1520   -4.2434  -27.7669 C   0  0  0  0  0  0  0  0  0  0  0  0
  -19.5100   -5.8225  -33.2097 C   0  0  0  0  0  0  0  0  0  0  0  0
  -20.7911   -4.5147  -27.9553 C   0  0  0  0  0  0  0  0  0  0  0  0
  -22.4813   -4.1202  -30.1357 C   0  0  0  0  0  0  0  0  0  0  0  0
  -21.1216   -4.3877  -30.3326 C   0  0  0  0  0  0  0  0  0  0  0  0
  -16.8219   -6.1090  -25.7985 C   0  0  0  0  0  0  0  0  0  0  0  0
  -18.3008   -6.0097  -25.9268 C   0  0  0  0  0  0  0  0  0  0  0  0
  -17.8354   -3.9028  -27.0412 C   0  0  0  0  0  0  0  0  0  0  0  0
  -16.5000   -4.0179  -26.9120 C   0  0  0  0  0  0  0  0  0  0  0  0
  -18.7879   -4.9114  -26.5443 C   0  0  0  0  0  0  0  0  0  0  0  0
  -22.7460   -2.7061  -25.8746 C   0  0  0  0  0  0  0  0  0  0  0  0
  -23.6653   -5.0456  -25.8939 C   0  0  0  0  0  0  0  0  0  0  0  0
  -23.1941   -2.5898  -24.4131 C   0  0  0  0  0  0  0  0  0  0  0  0
  -24.0469   -4.8596  -24.4227 C   0  0  0  0  0  0  0  0  0  0  0  0
  -21.1328   -4.6970  -25.6800 C   0  0  0  0  0  0  0  0  0  0  0  0
  -22.4682   -4.1645  -26.2934 C   0  0  0  0  0  0  0  0  0  0  0  0
  -23.4481   -2.5876  -31.6759 C   0  0  0  0  0  0  0  0  0  0  0  0
  -24.7861   -3.2936  -22.7488 C   0  0  0  0  0  0  0  0  0  0  0  0
  -19.4959   -5.3228  -31.7949 C   0  0  0  0  0  0  0  0  0  0  0  0
  -26.8512   -4.8252  -22.2341 N   0  0  0  0  0  0  0  0  0  0  0  0
  -16.0187   -5.1421  -26.2803 N   0  0  0  0  0  0  0  0  0  0  0  0
  -16.0520   -7.0521  -25.2496 N   0  3  0  0  0  0  0  0  0  0  0  0
  -20.1107   -4.6831  -26.7337 N   0  0  0  0  0  0  0  0  0  0  0  0
  -24.3506   -3.4515  -24.1363 N   0  0  0  0  0  0  0  0  0  0  0  0
  -23.3063   -3.9253  -31.2031 O   0  0  0  0  0  0  0  0  0  0  0  0
  -20.6118   -4.4585  -31.5955 O   0  0  0  0  0  0  0  0  0  0  0  0
  -19.5451   -7.1122  -36.8645 H   0  0  0  0  0  0  0  0  0  0  0  0
  -20.7275   -8.3804  -35.0901 H   0  0  0  0  0  0  0  0  0  0  0  0
  -18.3398   -5.0182  -36.2990 H   0  0  0  0  0  0  0  0  0  0  0  0
  -20.7085   -7.5617  -32.7569 H   0  0  0  0  0  0  0  0  0  0  0  0
  -18.3148   -4.1912  -33.9690 H   0  0  0  0  0  0  0  0  0  0  0  0
  -24.0553   -3.8183  -28.6910 H   0  0  0  0  0  0  0  0  0  0  0  0
  -19.2178   -4.7903  -29.4151 H   0  0  0  0  0  0  0  0  0  0  0  0
  -13.9293   -4.8165  -26.3496 H   0  0  0  0  0  0  0  0  0  0  0  0
  -13.9940   -7.3576  -24.9789 H   0  0  0  0  0  0  0  0  0  0  0  0
  -18.9278   -6.7993  -25.5318 H   0  0  0  0  0  0  0  0  0  0  0  0
  -18.2447   -3.0261  -27.5353 H   0  0  0  0  0  0  0  0  0  0  0  0
  -15.7922   -3.2831  -27.2731 H   0  0  0  0  0  0  0  0  0  0  0  0
  -23.5330   -2.2797  -26.5125 H   0  0  0  0  0  0  0  0  0  0  0  0
  -21.8571   -2.0808  -26.0318 H   0  0  0  0  0  0  0  0  0  0  0  0
  -23.4503   -6.1045  -26.0860 H   0  0  0  0  0  0  0  0  0  0  0  0
  -24.5394   -4.7995  -26.5118 H   0  0  0  0  0  0  0  0  0  0  0  0
  -22.3598   -2.8277  -23.7416 H   0  0  0  0  0  0  0  0  0  0  0  0
  -23.4633   -1.5429  -24.2265 H   0  0  0  0  0  0  0  0  0  0  0  0
  -24.9322   -5.4755  -24.2229 H   0  0  0  0  0  0  0  0  0  0  0  0
  -23.2431   -5.2297  -23.7735 H   0  0  0  0  0  0  0  0  0  0  0  0
  -20.8044   -4.1009  -24.8213 H   0  0  0  0  0  0  0  0  0  0  0  0
  -21.2493   -5.7308  -25.3286 H   0  0  0  0  0  0  0  0  0  0  0  0
  -24.1318   -2.5722  -32.5282 H   0  0  0  0  0  0  0  0  0  0  0  0
  -22.4704   -2.1995  -31.9725 H   0  0  0  0  0  0  0  0  0  0  0  0
  -23.8557   -1.9683  -30.8735 H   0  0  0  0  0  0  0  0  0  0  0  0
  -25.0309   -2.2385  -22.5970 H   0  0  0  0  0  0  0  0  0  0  0  0
  -23.9386   -3.5469  -22.1055 H   0  0  0  0  0  0  0  0  0  0  0  0
  -19.5571   -6.1547  -31.0850 H   0  0  0  0  0  0  0  0  0  0  0  0
  -18.5726   -4.7710  -31.5878 H   0  0  0  0  0  0  0  0  0  0  0  0
  -16.3885   -7.9027  -24.8068 H   0  0  0  0  0  0  0  0  0  0  0  0
  1 28  1  0  0  0  0
  1 30  3  0  0  0  0
  2  3  2  0  0  0  0
  2  4  1  0  0  0  0
  3  5  1  0  0  0  0
  4  6  2  0  0  0  0
  5 12  2  0  0  0  0
  6 12  1  0  0  0  0
  7 11  1  0  0  0  0
  7 14  2  0  0  0  0
  8 13  1  0  0  0  0
  8 15  2  0  0  0  0
  9 10  2  0  0  0  0
  9 31  1  0  0  0  0
 10 32  1  0  0  0  0
 11 13  2  0  0  0  0
 11 26  1  0  0  0  0
 12 29  1  0  0  0  0
 13 33  1  0  0  0  0
 14 15  1  0  0  0  0
 14 35  1  0  0  0  0
 15 36  1  0  0  0  0
 16 17  1  0  0  0  0
 16 31  1  0  0  0  0
 16 32  2  0  0  0  0
 17 20  2  0  0  0  0
 18 19  2  0  0  0  0
 18 20  1  0  0  0  0
 19 31  1  0  0  0  0
 20 33  1  0  0  0  0
 21 23  1  0  0  0  0
 21 26  1  0  0  0  0
 22 24  1  0  0  0  0
 22 26  1  0  0  0  0
 23 34  1  0  0  0  0
 24 34  1  0  0  0  0
 25 26  1  0  0  0  0
 25 33  1  0  0  0  0
 27 35  1  0  0  0  0
 28 34  1  0  0  0  0
 29 36  1  0  0  0  0
  2 37  1  0  0  0  0
  3 38  1  0  0  0  0
  4 39  1  0  0  0  0
  5 40  1  0  0  0  0
  6 41  1  0  0  0  0
  7 42  1  0  0  0  0
  8 43  1  0  0  0  0
  9 44  1  0  0  0  0
 10 45  1  0  0  0  0
 17 46  1  0  0  0  0
 18 47  1  0  0  0  0
 19 48  1  0  0  0  0
 21 49  1  0  0  0  0
 21 50  1  0  0  0  0
 22 51  1  0  0  0  0
 22 52  1  0  0  0  0
 23 53  1  0  0  0  0
 23 54  1  0  0  0  0
 24 55  1  0  0  0  0
 24 56  1  0  0  0  0
 25 57  1  0  0  0  0
 25 58  1  0  0  0  0
 27 59  1  0  0  0  0
 27 60  1  0  0  0  0
 27 61  1  0  0  0  0
 28 62  1  0  0  0  0
 28 63  1  0  0  0  0
 29 64  1  0  0  0  0
 29 65  1  0  0  0  0
 32 66  1  0  0  0  0
M  CHG  1  32   1
M  END
> <SMILES>
COc1cc2c(cc1OCc1ccccc1)N(CC12CCN(CC1)CC#N)c1ccn2ccnc2c1

> <FORMATTED_ID>
H3D-013907

> <MOLFORMULA>
C29H29N5O2

> <Exact Mass>
479.23

> <XLogP>
5.6

> <TPSA_NOPS>
66

> <s_m_source_file>
ligprep_h3d.sdf

> <i_m_source_file_index>
5150

> <i_lp_mmshare_version>
55123

> <i_f3d_flags>
0

> <s_epik_input>
W2NIXTFbY0hdW2NIXVtjSF1bY0hdYzFbQ0gyXU9jKGMoW2NIXTIpT1tDSDNdKVtjSF1jKGMyQzM0W0NIMl1bQ0gyXU4oW0NIMl1bQ0gyXTQpW0NIMl1DI04pTihbQ0gyXTMpYyhbY0hdW2NIXTUpW2NIXWMobjU2KW5bY0hdW2NIXTY=

> <s_epik_cmdline>
J2VwaWtfcHl0aG9uJywgJy1waHQnLCAnMC41JywgJy1waCcsICc3LjUnLCAnLXRuJywgJzgnLCAnLW1hJywgJzUwMCcsICctaW1hZScsICc8aW5maWxlLm1hZT4nLCAnLW9tYWUnLCAnPG91dGZpbGUubWFlPic=

> <r_lp_tautomer_probability>
1

> <r_epik_Ionization_Penalty>
0.310871

> <r_epik_Ionization_Penalty_Charging>
0

> <r_epik_Ionization_Penalty_Neutral>
0.310871

> <r_epik_State_Penalty>
0.304721

> <r_epik_Charging_Adjusted_Penalty>
0.304721

> <i_epik_Tot_Q>
1

> <i_epik_Tot_abs_Q>
1

> <s_lp_Force_Field>
S-OPLS

> <r_lp_Energy>
70.2706

> <b_lp_Chiralities_Consistent>
1

> <s_lp_Variant>
ligprep_h3d.sdf:5150-1

> <ROCS_ShapeQuery>
_7L13

> <ROCS_TanimotoCombo>
0.774 

> <ROCS_ShapeTanimoto>
0.666 

> <ROCS_ColorTanimoto>
0.107 

> <ROCS_RefTversky>
0.803 

> <ROCS_RefColorTversky>
0.223 

> <ROCS_RefTverskyCombo>
1.026 

> <ROCS_FitTversky>
0.796 

> <ROCS_FitColorTversky>
0.172 

> <ROCS_FitTverskyCombo>
0.968 

> <ROCS_ColorScore>
-2.041

> <ROCS_Overlap>
1334.096

> <ROCS_Rank>
189                 

$$$$
ligprep_h3d.sdf:5327_1881
  -OEChem-08212117123D

 73 78  0     0  0  0  0  0  0999 V2000
  -22.8541   -6.7329  -32.2762 C   0  0  0  0  0  0  0  0  0  0  0  0
  -22.6952   -5.6219  -31.4480 C   0  0  0  0  0  0  0  0  0  0  0  0
  -21.8158   -7.1286  -33.1194 C   0  0  0  0  0  0  0  0  0  0  0  0
  -23.4932   -3.6958  -27.6678 C   0  0  0  0  0  0  0  0  0  0  0  0
  -20.8464   -4.3668  -28.3827 C   0  0  0  0  0  0  0  0  0  0  0  0
  -20.4595   -5.3020  -32.3063 C   0  0  0  0  0  0  0  0  0  0  0  0
  -14.7989   -5.3235  -26.3156 C   0  0  0  0  0  0  0  0  0  0  0  0
  -15.3514   -6.4938  -25.8512 C   0  0  0  0  0  0  0  0  0  0  0  0
  -22.5927   -4.1436  -26.7090 C   0  0  0  0  0  0  0  0  0  0  0  0
  -21.2852   -4.4735  -27.0709 C   0  0  0  0  0  0  0  0  0  0  0  0
  -21.4979   -4.9064  -31.4631 C   0  0  0  0  0  0  0  0  0  0  0  0
  -23.0653   -3.5835  -28.9922 C   0  0  0  0  0  0  0  0  0  0  0  0
  -21.7508   -3.9169  -29.3467 C   0  0  0  0  0  0  0  0  0  0  0  0
  -20.6185   -6.4131  -33.1345 C   0  0  0  0  0  0  0  0  0  0  0  0
  -16.9047   -4.9624  -26.2538 C   0  0  0  0  0  0  0  0  0  0  0  0
  -18.2503   -4.4934  -26.2992 C   0  0  0  0  0  0  0  0  0  0  0  0
  -18.9975   -6.6574  -25.4637 C   0  0  0  0  0  0  0  0  0  0  0  0
  -17.7333   -7.1071  -25.4185 C   0  0  0  0  0  0  0  0  0  0  0  0
  -19.2768   -5.2923  -25.9233 C   0  0  0  0  0  0  0  0  0  0  0  0
  -23.9214   -5.4010  -24.9721 C   0  0  0  0  0  0  0  0  0  0  0  0
  -23.2049   -3.0177  -24.5359 C   0  0  0  0  0  0  0  0  0  0  0  0
  -21.4303   -4.8489  -24.7635 C   0  0  0  0  0  0  0  0  0  0  0  0
  -24.2502   -5.5633  -23.4924 C   0  0  0  0  0  0  0  0  0  0  0  0
  -23.5386   -3.1973  -23.0594 C   0  0  0  0  0  0  0  0  0  0  0  0
  -22.8299   -4.3435  -25.2254 C   0  0  0  0  0  0  0  0  0  0  0  0
  -20.9211   -6.2757  -36.3337 C   0  0  0  0  0  0  0  0  0  0  0  0
  -19.2395   -4.6001  -35.6818 C   0  0  0  0  0  0  0  0  0  0  0  0
  -25.0902   -4.3484  -21.4851 C   0  0  0  0  0  0  0  0  0  0  0  0
  -23.9948   -1.7378  -30.1692 C   0  0  0  0  0  0  0  0  0  0  0  0
  -15.7638   -4.3803  -26.5629 N   0  0  0  0  0  0  0  0  0  0  0  0
  -16.7024   -6.2634  -25.8109 N   0  0  0  0  0  0  0  0  0  0  0  0
  -20.5663   -4.8966  -25.9480 N   0  0  0  0  0  0  0  0  0  0  0  0
  -19.6266   -6.0334  -35.6476 N   0  0  0  0  0  0  0  0  0  0  0  0
  -24.6344   -4.2241  -22.9132 N   0  3  0  0  0  0  0  0  0  0  0  0
  -18.0617   -6.4398  -33.6149 O   0  0  0  0  0  0  0  0  0  0  0  0
  -19.4687   -8.3363  -34.4561 O   0  0  0  0  0  0  0  0  0  0  0  0
  -21.3405   -3.8038  -30.6424 O   0  0  0  0  0  0  0  0  0  0  0  0
  -23.9418   -3.1440  -29.9394 O   0  0  0  0  0  0  0  0  0  0  0  0
  -19.3178   -6.9102  -34.1885 S   0  0  0  0  0  0  0  0  0  0  0  0
  -23.7864   -7.2897  -32.2647 H   0  0  0  0  0  0  0  0  0  0  0  0
  -23.5077   -5.3186  -30.7936 H   0  0  0  0  0  0  0  0  0  0  0  0
  -21.9497   -7.9962  -33.7597 H   0  0  0  0  0  0  0  0  0  0  0  0
  -24.5118   -3.4370  -27.3956 H   0  0  0  0  0  0  0  0  0  0  0  0
  -19.8319   -4.6207  -28.6703 H   0  0  0  0  0  0  0  0  0  0  0  0
  -19.5282   -4.7407  -32.3146 H   0  0  0  0  0  0  0  0  0  0  0  0
  -13.7530   -5.1129  -26.4845 H   0  0  0  0  0  0  0  0  0  0  0  0
  -14.9158   -7.4387  -25.5566 H   0  0  0  0  0  0  0  0  0  0  0  0
  -18.4298   -3.4791  -26.6424 H   0  0  0  0  0  0  0  0  0  0  0  0
  -19.8219   -7.2953  -25.1633 H   0  0  0  0  0  0  0  0  0  0  0  0
  -17.4766   -8.1060  -25.0875 H   0  0  0  0  0  0  0  0  0  0  0  0
  -23.6185   -6.3730  -25.3831 H   0  0  0  0  0  0  0  0  0  0  0  0
  -24.8425   -5.1264  -25.5036 H   0  0  0  0  0  0  0  0  0  0  0  0
  -24.0728   -2.5657  -25.0350 H   0  0  0  0  0  0  0  0  0  0  0  0
  -22.3906   -2.2882  -24.6356 H   0  0  0  0  0  0  0  0  0  0  0  0
  -20.9833   -4.1823  -24.0160 H   0  0  0  0  0  0  0  0  0  0  0  0
  -21.4861   -5.8484  -24.3154 H   0  0  0  0  0  0  0  0  0  0  0  0
  -25.1068   -6.2333  -23.3638 H   0  0  0  0  0  0  0  0  0  0  0  0
  -23.4026   -5.9459  -22.9144 H   0  0  0  0  0  0  0  0  0  0  0  0
  -22.6791   -3.5411  -22.4745 H   0  0  0  0  0  0  0  0  0  0  0  0
  -23.9113   -2.2586  -22.6362 H   0  0  0  0  0  0  0  0  0  0  0  0
  -21.1680   -7.3465  -36.2844 H   0  0  0  0  0  0  0  0  0  0  0  0
  -21.7127   -5.6939  -35.8389 H   0  0  0  0  0  0  0  0  0  0  0  0
  -20.8417   -5.9660  -37.3862 H   0  0  0  0  0  0  0  0  0  0  0  0
  -18.2781   -4.4670  -35.1640 H   0  0  0  0  0  0  0  0  0  0  0  0
  -19.1414   -4.2717  -36.7270 H   0  0  0  0  0  0  0  0  0  0  0  0
  -20.0124   -3.9996  -35.1798 H   0  0  0  0  0  0  0  0  0  0  0  0
  -24.2459   -4.7103  -20.8954 H   0  0  0  0  0  0  0  0  0  0  0  0
  -25.4090   -3.3600  -21.1488 H   0  0  0  0  0  0  0  0  0  0  0  0
  -25.9194   -5.0580  -21.4596 H   0  0  0  0  0  0  0  0  0  0  0  0
  -24.7320   -1.5224  -30.9466 H   0  0  0  0  0  0  0  0  0  0  0  0
  -23.0091   -1.3808  -30.4778 H   0  0  0  0  0  0  0  0  0  0  0  0
  -24.2881   -1.2372  -29.2434 H   0  0  0  0  0  0  0  0  0  0  0  0
  -25.4455   -3.8824  -23.4470 H   0  0  0  0  0  0  0  0  0  0  0  0
  1  2  1  0  0  0  0
  1  3  2  0  0  0  0
  2 11  2  0  0  0  0
  3 14  1  0  0  0  0
  4  9  1  0  0  0  0
  4 12  2  0  0  0  0
  5 10  1  0  0  0  0
  5 13  2  0  0  0  0
  6 11  1  0  0  0  0
  6 14  2  0  0  0  0
  7  8  2  0  0  0  0
  7 30  1  0  0  0  0
  8 31  1  0  0  0  0
  9 10  2  0  0  0  0
  9 25  1  0  0  0  0
 10 32  1  0  0  0  0
 11 37  1  0  0  0  0
 12 13  1  0  0  0  0
 12 38  1  0  0  0  0
 13 37  1  0  0  0  0
 14 39  1  0  0  0  0
 15 16  1  0  0  0  0
 15 30  2  0  0  0  0
 15 31  1  0  0  0  0
 16 19  2  0  0  0  0
 17 18  2  0  0  0  0
 17 19  1  0  0  0  0
 18 31  1  0  0  0  0
 19 32  1  0  0  0  0
 20 23  1  0  0  0  0
 20 25  1  0  0  0  0
 21 24  1  0  0  0  0
 21 25  1  0  0  0  0
 22 25  1  0  0  0  0
 22 32  1  0  0  0  0
 23 34  1  0  0  0  0
 24 34  1  0  0  0  0
 26 33  1  0  0  0  0
 27 33  1  0  0  0  0
 28 34  1  0  0  0  0
 29 38  1  0  0  0  0
 33 39  1  0  0  0  0
 35 39  2  0  0  0  0
 36 39  2  0  0  0  0
  1 40  1  0  0  0  0
  2 41  1  0  0  0  0
  3 42  1  0  0  0  0
  4 43  1  0  0  0  0
  5 44  1  0  0  0  0
  6 45  1  0  0  0  0
  7 46  1  0  0  0  0
  8 47  1  0  0  0  0
 16 48  1  0  0  0  0
 17 49  1  0  0  0  0
 18 50  1  0  0  0  0
 20 51  1  0  0  0  0
 20 52  1  0  0  0  0
 21 53  1  0  0  0  0
 21 54  1  0  0  0  0
 22 55  1  0  0  0  0
 22 56  1  0  0  0  0
 23 57  1  0  0  0  0
 23 58  1  0  0  0  0
 24 59  1  0  0  0  0
 24 60  1  0  0  0  0
 26 61  1  0  0  0  0
 26 62  1  0  0  0  0
 26 63  1  0  0  0  0
 27 64  1  0  0  0  0
 27 65  1  0  0  0  0
 27 66  1  0  0  0  0
 28 67  1  0  0  0  0
 28 68  1  0  0  0  0
 28 69  1  0  0  0  0
 29 70  1  0  0  0  0
 29 71  1  0  0  0  0
 29 72  1  0  0  0  0
 34 73  1  0  0  0  0
M  CHG  1  34   1
M  END
> <SMILES>
COc1cc2c(cc1Oc1cccc(c1)S(=O)(=O)N(C)C)N(CC12CCN(C)CC1)c1ccn2ccnc2c1

> <FORMATTED_ID>
H3D-014903

> <MOLFORMULA>
C29H33N5O4S

> <Exact Mass>
547.23

> <XLogP>
5.02

> <TPSA_NOPS>
88

> <s_m_source_file>
ligprep_h3d.sdf

> <i_m_source_file_index>
5327

> <i_lp_mmshare_version>
55123

> <i_f3d_flags>
0

> <s_epik_input>
W0NIMl0xW0NIMl1OKFtDSDNdKVtDSDJdW0NIMl1DMTJjM2MoTihbQ0gyXTIpYyhbY0hdW2NIXTQpW2NIXWMobjQ1KW5bY0hdW2NIXTUpW2NIXWMoYyhbY0hdMylPW0NIM10pT2M2W2NIXVtjSF1bY0hdYyhbY0hdNilTKD1PKSg9TylOKFtDSDNdKVtDSDNd

> <s_epik_cmdline>
J2VwaWtfcHl0aG9uJywgJy1waHQnLCAnMC41JywgJy1waCcsICc3LjUnLCAnLXRuJywgJzgnLCAnLW1hJywgJzUwMCcsICctaW1hZScsICc8aW5maWxlLm1hZT4nLCAnLW9tYWUnLCAnPG91dGZpbGUubWFlPic=

> <r_lp_tautomer_probability>
1

> <r_epik_Ionization_Penalty>
0.43281

> <r_epik_Ionization_Penalty_Charging>
0.43281

> <r_epik_Ionization_Penalty_Neutral>
8.28196e-11

> <r_epik_State_Penalty>
0.425628

> <r_epik_Charging_Adjusted_Penalty>
0.858438

> <i_epik_Tot_Q>
1

> <i_epik_Tot_abs_Q>
1

> <s_lp_Force_Field>
S-OPLS

> <r_lp_Energy>
83.0347

> <b_lp_Chiralities_Consistent>
1

> <s_lp_Variant>
ligprep_h3d.sdf:5327-2

> <ROCS_ShapeQuery>
_7L13

> <ROCS_TanimotoCombo>
0.724 

> <ROCS_ShapeTanimoto>
0.633 

> <ROCS_ColorTanimoto>
0.091 

> <ROCS_RefTversky>
0.803 

> <ROCS_RefColorTversky>
0.199 

> <ROCS_RefTverskyCombo>
1.002 

> <ROCS_FitTversky>
0.750 

> <ROCS_FitColorTversky>
0.143 

> <ROCS_FitTverskyCombo>
0.893 

> <ROCS_ColorScore>
-1.832

> <ROCS_Overlap>
1338.580

> <ROCS_Rank>
190                 

$$$$
ligprep_h3d.sdf:1194_1821
  -OEChem-08212117123D

 72 77  0     0  0  0  0  0  0999 V2000
  -21.0322   -3.9696  -32.4928 C   0  0  0  0  0  0  0  0  0  0  0  0
  -20.2634   -6.1681  -31.8504 C   0  0  0  0  0  0  0  0  0  0  0  0
  -20.5405   -4.1743  -33.7819 C   0  0  0  0  0  0  0  0  0  0  0  0
  -19.7718   -6.3729  -33.1396 C   0  0  0  0  0  0  0  0  0  0  0  0
  -16.8967   -5.8042  -26.7100 C   0  0  0  0  0  0  0  0  0  0  0  0
  -23.2608   -4.3026  -28.7166 C   0  0  0  0  0  0  0  0  0  0  0  0
  -20.7576   -4.4063  -25.4009 C   0  0  0  0  0  0  0  0  0  0  0  0
  -16.8129   -4.4046  -26.8361 C   0  0  0  0  0  0  0  0  0  0  0  0
  -21.0599   -4.5833  -27.7930 C   0  0  0  0  0  0  0  0  0  0  0  0
  -20.8936   -4.9665  -31.5270 C   0  0  0  0  0  0  0  0  0  0  0  0
  -21.4034   -4.7540  -30.1898 C   0  0  0  0  0  0  0  0  0  0  0  0
  -19.9103   -5.3760  -34.1054 C   0  0  0  0  0  0  0  0  0  0  0  0
  -22.7583   -4.5093  -30.0037 C   0  0  0  0  0  0  0  0  0  0  0  0
  -20.5542   -4.7912  -29.0876 C   0  0  0  0  0  0  0  0  0  0  0  0
  -22.4345   -4.3345  -27.5966 C   0  0  0  0  0  0  0  0  0  0  0  0
  -20.2276   -4.6154  -26.6660 C   0  0  0  0  0  0  0  0  0  0  0  0
  -22.1143   -4.1704  -25.3084 C   0  0  0  0  0  0  0  0  0  0  0  0
  -18.2433   -6.0615  -26.6276 C   0  0  0  0  0  0  0  0  0  0  0  0
  -22.7333   -3.9452  -24.0135 C   0  0  0  0  0  0  0  0  0  0  0  0
  -24.2715   -4.8395  -21.4926 C   0  0  0  0  0  0  0  0  0  0  0  0
  -26.3368   -4.0701  -22.7210 C   0  0  0  0  0  0  0  0  0  0  0  0
  -25.5323   -2.8498  -22.3978 C   0  0  0  0  0  0  0  0  0  0  0  0
  -18.1416   -7.1385  -36.8735 C   0  0  0  0  0  0  0  0  0  0  0  0
  -20.2967   -7.7690  -36.0036 C   0  0  0  0  0  0  0  0  0  0  0  0
  -17.8425   -8.6139  -37.1236 C   0  0  0  0  0  0  0  0  0  0  0  0
  -19.9463   -9.2296  -36.2731 C   0  0  0  0  0  0  0  0  0  0  0  0
  -24.8277   -4.1652  -22.6512 C   0  0  0  0  0  0  0  0  0  0  0  0
  -23.7143   -4.4572  -31.1530 C   0  0  0  0  0  0  0  0  0  0  0  0
  -19.1020   -5.0609  -29.3663 C   0  0  0  0  0  0  0  0  0  0  0  0
  -18.9695   -7.3386  -26.4838 C   0  0  0  0  0  0  0  0  0  0  0  0
  -19.3809   -5.5963  -35.4929 C   0  0  0  0  0  0  0  0  0  0  0  0
  -18.0110   -3.8141  -26.8346 N   0  0  0  0  0  0  0  0  0  0  0  0
  -22.9516   -4.1312  -26.3701 N   0  0  0  0  0  0  0  0  0  0  0  0
  -18.8603   -4.8477  -26.7066 N   0  0  0  0  0  0  0  0  0  0  0  0
  -19.0705   -7.0023  -35.7429 N   0  0  0  0  0  0  0  0  0  0  0  0
  -24.0681   -4.3430  -23.8679 N   0  0  0  0  0  0  0  0  0  0  0  0
  -24.0281   -4.0965  -20.5017 O   0  5  0  0  0  0  0  0  0  0  0  0
  -22.0955   -3.4022  -23.0931 O   0  0  0  0  0  0  0  0  0  0  0  0
  -24.1053   -6.0836  -21.6331 O   0  0  0  0  0  0  0  0  0  0  0  0
  -19.0511   -9.3299  -37.3811 O   0  0  0  0  0  0  0  0  0  0  0  0
  -21.5204   -3.0272  -32.2560 H   0  0  0  0  0  0  0  0  0  0  0  0
  -20.1483   -6.9550  -31.1087 H   0  0  0  0  0  0  0  0  0  0  0  0
  -20.6519   -3.3918  -34.5277 H   0  0  0  0  0  0  0  0  0  0  0  0
  -19.2826   -7.3124  -33.3830 H   0  0  0  0  0  0  0  0  0  0  0  0
  -16.0918   -6.5241  -26.6833 H   0  0  0  0  0  0  0  0  0  0  0  0
  -24.3254   -4.1119  -28.5855 H   0  0  0  0  0  0  0  0  0  0  0  0
  -20.1348   -4.4259  -24.5108 H   0  0  0  0  0  0  0  0  0  0  0  0
  -15.9287   -3.7905  -26.9292 H   0  0  0  0  0  0  0  0  0  0  0  0
  -26.9245   -4.5107  -21.9241 H   0  0  0  0  0  0  0  0  0  0  0  0
  -26.8112   -4.1160  -23.6944 H   0  0  0  0  0  0  0  0  0  0  0  0
  -25.4669   -2.0763  -23.1543 H   0  0  0  0  0  0  0  0  0  0  0  0
  -25.5794   -2.4701  -21.3838 H   0  0  0  0  0  0  0  0  0  0  0  0
  -17.2024   -6.6160  -36.6588 H   0  0  0  0  0  0  0  0  0  0  0  0
  -18.5777   -6.6966  -37.7789 H   0  0  0  0  0  0  0  0  0  0  0  0
  -20.8271   -7.3549  -36.8710 H   0  0  0  0  0  0  0  0  0  0  0  0
  -20.9678   -7.7186  -35.1386 H   0  0  0  0  0  0  0  0  0  0  0  0
  -17.1989   -8.7190  -38.0029 H   0  0  0  0  0  0  0  0  0  0  0  0
  -17.3206   -9.0700  -36.2736 H   0  0  0  0  0  0  0  0  0  0  0  0
  -19.4959   -9.7074  -35.3944 H   0  0  0  0  0  0  0  0  0  0  0  0
  -20.8521   -9.7899  -36.5259 H   0  0  0  0  0  0  0  0  0  0  0  0
  -23.7856   -3.4345  -31.5387 H   0  0  0  0  0  0  0  0  0  0  0  0
  -23.3901   -5.1177  -31.9655 H   0  0  0  0  0  0  0  0  0  0  0  0
  -24.7141   -4.7888  -30.8491 H   0  0  0  0  0  0  0  0  0  0  0  0
  -18.9134   -6.1370  -29.3389 H   0  0  0  0  0  0  0  0  0  0  0  0
  -18.8183   -4.6733  -30.3487 H   0  0  0  0  0  0  0  0  0  0  0  0
  -18.4678   -4.5677  -28.6243 H   0  0  0  0  0  0  0  0  0  0  0  0
  -19.1194   -7.5930  -25.4218 H   0  0  0  0  0  0  0  0  0  0  0  0
  -19.9623   -7.3064  -26.9641 H   0  0  0  0  0  0  0  0  0  0  0  0
  -18.4296   -8.1770  -26.9564 H   0  0  0  0  0  0  0  0  0  0  0  0
  -20.1133   -5.2743  -36.2412 H   0  0  0  0  0  0  0  0  0  0  0  0
  -18.4673   -5.0166  -35.6616 H   0  0  0  0  0  0  0  0  0  0  0  0
  -24.5617   -4.7233  -24.6688 H   0  0  0  0  0  0  0  0  0  0  0  0
  1  3  1  0  0  0  0
  1 10  2  0  0  0  0
  2  4  2  0  0  0  0
  2 10  1  0  0  0  0
  3 12  2  0  0  0  0
  4 12  1  0  0  0  0
  5  8  1  0  0  0  0
  5 18  2  0  0  0  0
  6 13  2  0  0  0  0
  6 15  1  0  0  0  0
  7 16  1  0  0  0  0
  7 17  2  0  0  0  0
  8 32  2  0  0  0  0
  9 14  1  0  0  0  0
  9 15  1  0  0  0  0
  9 16  2  0  0  0  0
 10 11  1  0  0  0  0
 11 13  1  0  0  0  0
 11 14  2  0  0  0  0
 12 31  1  0  0  0  0
 13 28  1  0  0  0  0
 14 29  1  0  0  0  0
 15 33  2  0  0  0  0
 16 34  1  0  0  0  0
 17 19  1  0  0  0  0
 17 33  1  0  0  0  0
 18 30  1  0  0  0  0
 18 34  1  0  0  0  0
 19 36  1  0  0  0  0
 19 38  2  0  0  0  0
 20 27  1  0  0  0  0
 20 37  1  0  0  0  0
 20 39  2  0  0  0  0
 21 22  1  0  0  0  0
 21 27  1  0  0  0  0
 22 27  1  0  0  0  0
 23 25  1  0  0  0  0
 23 35  1  0  0  0  0
 24 26  1  0  0  0  0
 24 35  1  0  0  0  0
 25 40  1  0  0  0  0
 26 40  1  0  0  0  0
 27 36  1  0  0  0  0
 31 35  1  0  0  0  0
 32 34  1  0  0  0  0
  1 41  1  0  0  0  0
  2 42  1  0  0  0  0
  3 43  1  0  0  0  0
  4 44  1  0  0  0  0
  5 45  1  0  0  0  0
  6 46  1  0  0  0  0
  7 47  1  0  0  0  0
  8 48  1  0  0  0  0
 21 49  1  0  0  0  0
 21 50  1  0  0  0  0
 22 51  1  0  0  0  0
 22 52  1  0  0  0  0
 23 53  1  0  0  0  0
 23 54  1  0  0  0  0
 24 55  1  0  0  0  0
 24 56  1  0  0  0  0
 25 57  1  0  0  0  0
 25 58  1  0  0  0  0
 26 59  1  0  0  0  0
 26 60  1  0  0  0  0
 28 61  1  0  0  0  0
 28 62  1  0  0  0  0
 28 63  1  0  0  0  0
 29 64  1  0  0  0  0
 29 65  1  0  0  0  0
 29 66  1  0  0  0  0
 30 67  1  0  0  0  0
 30 68  1  0  0  0  0
 30 69  1  0  0  0  0
 31 70  1  0  0  0  0
 31 71  1  0  0  0  0
 36 72  1  0  0  0  0
M  CHG  1  37  -1
M  END
> <SMILES>
Cc1cc2nc(cc(c2c(c1-c1ccc(cc1)CN1CCOCC1)C)-n1nccc1C)C(=O)NC1(CC1)C(=O)O

> <FORMATTED_ID>
H3D-008292

> <MOLFORMULA>
C31H33N5O4

> <Exact Mass>
539.25

> <XLogP>
3.41

> <TPSA_NOPS>
109.6

> <s_m_source_file>
ligprep_h3d.sdf

> <i_m_source_file_index>
1194

> <i_lp_mmshare_version>
55123

> <i_f3d_flags>
0

> <s_epik_input>
W0NIMl0xW0NIMl1DMShDKD1PKVtPSF0pW05IXUMoPU8pYyhuMilbY0hdYygtbjNuW2NIXVtjSF1jM1tDSDNdKWMoYzI0KWMoW0NIM10pYyhjKFtDSDNdKVtjSF00KS1jNVtjSF1bY0hdYyhbY0hdW2NIXTUpW0NIMl1ONltDSDJdW0NIMl1PW0NIMl1bQ0gyXTY=

> <s_epik_cmdline>
J2VwaWtfcHl0aG9uJywgJy1waHQnLCAnMC41JywgJy1waCcsICc3LjUnLCAnLXRuJywgJzgnLCAnLW1hJywgJzUwMCcsICctaW1hZScsICc8aW5maWxlLm1hZT4nLCAnLW9tYWUnLCAnPG91dGZpbGUubWFlPic=

> <r_lp_tautomer_probability>
1

> <r_epik_Ionization_Penalty>
0.105686

> <r_epik_Ionization_Penalty_Charging>
0.000123838

> <r_epik_Ionization_Penalty_Neutral>
0.105562

> <r_epik_State_Penalty>
0.095414

> <r_epik_Charging_Adjusted_Penalty>
0.0955379

> <i_epik_Tot_Q>
-1

> <i_epik_Tot_abs_Q>
1

> <s_lp_Force_Field>
S-OPLS

> <r_lp_Energy>
85.384

> <b_lp_Chiralities_Consistent>
1

> <s_lp_Variant>
ligprep_h3d.sdf:1194-1

> <ROCS_ShapeQuery>
_7L13

> <ROCS_TanimotoCombo>
0.709 

> <ROCS_ShapeTanimoto>
0.613 

> <ROCS_ColorTanimoto>
0.097 

> <ROCS_RefTversky>
0.803 

> <ROCS_RefColorTversky>
0.220 

> <ROCS_RefTverskyCombo>
1.023 

> <ROCS_FitTversky>
0.721 

> <ROCS_FitColorTversky>
0.148 

> <ROCS_FitTverskyCombo>
0.869 

> <ROCS_ColorScore>
-2.033

> <ROCS_Overlap>
1341.618

> <ROCS_Rank>
191                 

$$$$
ligprep_h3d.sdf:1327_1895
  -OEChem-08212117123D

 75 79  0     1  0  0  0  0  0999 V2000
  -19.9019   -3.8549  -32.3795 C   0  0  0  0  0  0  0  0  0  0  0  0
  -20.1721   -6.2452  -32.1540 C   0  0  0  0  0  0  0  0  0  0  0  0
  -19.3319   -4.0382  -33.6392 C   0  0  0  0  0  0  0  0  0  0  0  0
  -19.6021   -6.4284  -33.4138 C   0  0  0  0  0  0  0  0  0  0  0  0
  -16.5452   -5.5319  -26.6042 C   0  0  0  0  0  0  0  0  0  0  0  0
  -22.8713   -4.4170  -28.9539 C   0  0  0  0  0  0  0  0  0  0  0  0
  -20.5444   -4.3547  -25.5112 C   0  0  0  0  0  0  0  0  0  0  0  0
  -16.5364   -4.1306  -26.7382 C   0  0  0  0  0  0  0  0  0  0  0  0
  -20.7095   -4.5631  -27.9142 C   0  0  0  0  0  0  0  0  0  0  0  0
  -20.3220   -4.9585  -31.6368 C   0  0  0  0  0  0  0  0  0  0  0  0
  -20.9157   -4.7675  -30.3240 C   0  0  0  0  0  0  0  0  0  0  0  0
  -19.1820   -5.3249  -34.1564 C   0  0  0  0  0  0  0  0  0  0  0  0
  -22.2905   -4.6014  -30.2111 C   0  0  0  0  0  0  0  0  0  0  0  0
  -20.1251   -4.7486  -29.1786 C   0  0  0  0  0  0  0  0  0  0  0  0
  -22.1046   -4.3940  -27.7920 C   0  0  0  0  0  0  0  0  0  0  0  0
  -19.9373   -4.5398  -26.7449 C   0  0  0  0  0  0  0  0  0  0  0  0
  -21.9155   -4.1981  -25.4918 C   0  0  0  0  0  0  0  0  0  0  0  0
  -17.8771   -5.8671  -26.5900 C   0  0  0  0  0  0  0  0  0  0  0  0
  -19.5933   -7.5726  -36.5652 C   0  0  0  0  0  0  0  0  0  0  0  0
  -22.6139   -4.0019  -24.2331 C   0  0  0  0  0  0  0  0  0  0  0  0
  -21.3042   -6.4773  -37.8052 C   0  0  0  0  0  0  0  0  0  0  0  0
  -20.2739   -5.4553  -37.3672 C   0  0  0  0  0  0  0  0  0  0  0  0
  -20.5519   -7.8010  -37.7185 C   0  0  2  0  0  0  0  0  0  0  0  0
  -23.1861   -4.6121  -31.4092 C   0  0  0  0  0  0  0  0  0  0  0  0
  -18.6470   -4.9345  -29.3787 C   0  0  0  0  0  0  0  0  0  0  0  0
  -18.5343   -7.1836  -26.4730 C   0  0  0  0  0  0  0  0  0  0  0  0
  -24.9284   -2.8430  -22.6674 C   0  0  0  0  0  0  0  0  0  0  0  0
  -24.0768   -5.0304  -21.7948 C   0  0  0  0  0  0  0  0  0  0  0  0
  -18.5723   -5.5209  -35.5033 C   0  0  0  0  0  0  0  0  0  0  0  0
  -26.1425   -4.9536  -23.2593 C   0  0  0  0  0  0  0  0  0  0  0  0
  -24.7609   -4.3361  -22.9802 C   0  0  0  0  0  0  0  0  0  0  0  0
  -17.7651   -3.6112  -26.8046 N   0  0  0  0  0  0  0  0  0  0  0  0
  -22.6966   -4.2141  -26.5961 N   0  0  0  0  0  0  0  0  0  0  0  0
  -18.5585   -4.6920  -26.7120 N   0  0  0  0  0  0  0  0  0  0  0  0
  -19.4681   -6.1913  -36.4202 N   0  0  0  0  0  0  0  0  0  0  0  0
  -23.9292   -4.4762  -24.1538 N   0  0  0  0  0  0  0  0  0  0  0  0
  -19.0443   -8.4542  -35.9220 O   0  0  0  0  0  0  0  0  0  0  0  0
  -22.0581   -3.4171  -23.2854 O   0  0  0  0  0  0  0  0  0  0  0  0
  -21.4319   -8.8686  -37.4771 O   0  0  0  0  0  0  0  0  0  0  0  0
  -27.0149   -4.8091  -22.1442 O   0  0  0  0  0  0  0  0  0  0  0  0
  -20.0114   -2.8457  -31.9897 H   0  0  0  0  0  0  0  0  0  0  0  0
  -20.4951   -7.1154  -31.5875 H   0  0  0  0  0  0  0  0  0  0  0  0
  -19.0065   -3.1728  -34.2104 H   0  0  0  0  0  0  0  0  0  0  0  0
  -19.4896   -7.4345  -33.8093 H   0  0  0  0  0  0  0  0  0  0  0  0
  -15.7023   -6.2033  -26.5290 H   0  0  0  0  0  0  0  0  0  0  0  0
  -23.9506   -4.2881  -28.8803 H   0  0  0  0  0  0  0  0  0  0  0  0
  -19.9693   -4.3326  -24.5896 H   0  0  0  0  0  0  0  0  0  0  0  0
  -15.6857   -3.4663  -26.7905 H   0  0  0  0  0  0  0  0  0  0  0  0
  -22.1677   -6.4760  -37.1282 H   0  0  0  0  0  0  0  0  0  0  0  0
  -21.6800   -6.2861  -38.8151 H   0  0  0  0  0  0  0  0  0  0  0  0
  -19.6327   -5.1362  -38.1946 H   0  0  0  0  0  0  0  0  0  0  0  0
  -20.7338   -4.5859  -36.8901 H   0  0  0  0  0  0  0  0  0  0  0  0
  -19.9740   -7.9882  -38.6303 H   0  0  0  0  0  0  0  0  0  0  0  0
  -23.2962   -3.5976  -31.8072 H   0  0  0  0  0  0  0  0  0  0  0  0
  -22.7816   -5.2572  -32.1977 H   0  0  0  0  0  0  0  0  0  0  0  0
  -24.1794   -4.9999  -31.1550 H   0  0  0  0  0  0  0  0  0  0  0  0
  -18.3979   -5.9975  -29.3318 H   0  0  0  0  0  0  0  0  0  0  0  0
  -18.3349   -4.5366  -30.3483 H   0  0  0  0  0  0  0  0  0  0  0  0
  -18.0825   -4.4007  -28.6090 H   0  0  0  0  0  0  0  0  0  0  0  0
  -18.7249   -7.4401  -25.4180 H   0  0  0  0  0  0  0  0  0  0  0  0
  -19.5007   -7.2124  -27.0048 H   0  0  0  0  0  0  0  0  0  0  0  0
  -17.9224   -7.9917  -26.9092 H   0  0  0  0  0  0  0  0  0  0  0  0
  -25.4150   -2.3147  -23.4949 H   0  0  0  0  0  0  0  0  0  0  0  0
  -25.5360   -2.6928  -21.7674 H   0  0  0  0  0  0  0  0  0  0  0  0
  -23.9585   -2.3649  -22.4866 H   0  0  0  0  0  0  0  0  0  0  0  0
  -23.9382   -6.1018  -21.9788 H   0  0  0  0  0  0  0  0  0  0  0  0
  -24.6641   -4.9184  -20.8768 H   0  0  0  0  0  0  0  0  0  0  0  0
  -23.0821   -4.6072  -21.6121 H   0  0  0  0  0  0  0  0  0  0  0  0
  -18.2957   -4.5587  -35.9567 H   0  0  0  0  0  0  0  0  0  0  0  0
  -17.6533   -6.1203  -35.4463 H   0  0  0  0  0  0  0  0  0  0  0  0
  -26.6221   -4.4631  -24.1133 H   0  0  0  0  0  0  0  0  0  0  0  0
  -26.0637   -6.0224  -23.4892 H   0  0  0  0  0  0  0  0  0  0  0  0
  -24.3570   -4.8894  -24.9760 H   0  0  0  0  0  0  0  0  0  0  0  0
  -22.0138   -8.9556  -38.2556 H   0  0  0  0  0  0  0  0  0  0  0  0
  -27.8577   -5.2192  -22.3953 H   0  0  0  0  0  0  0  0  0  0  0  0
  1  3  1  0  0  0  0
  1 10  2  0  0  0  0
  2  4  2  0  0  0  0
  2 10  1  0  0  0  0
  3 12  2  0  0  0  0
  4 12  1  0  0  0  0
  5  8  1  0  0  0  0
  5 18  2  0  0  0  0
  6 13  2  0  0  0  0
  6 15  1  0  0  0  0
  7 16  1  0  0  0  0
  7 17  2  0  0  0  0
  8 32  2  0  0  0  0
  9 14  1  0  0  0  0
  9 15  1  0  0  0  0
  9 16  2  0  0  0  0
 10 11  1  0  0  0  0
 11 13  1  0  0  0  0
 11 14  2  0  0  0  0
 12 29  1  0  0  0  0
 13 24  1  0  0  0  0
 14 25  1  0  0  0  0
 15 33  2  0  0  0  0
 16 34  1  0  0  0  0
 17 20  1  0  0  0  0
 17 33  1  0  0  0  0
 18 26  1  0  0  0  0
 18 34  1  0  0  0  0
 19 23  1  0  0  0  0
 19 35  1  0  0  0  0
 19 37  2  0  0  0  0
 20 36  1  0  0  0  0
 20 38  2  0  0  0  0
 21 22  1  0  0  0  0
 21 23  1  0  0  0  0
 22 35  1  0  0  0  0
 23 39  1  0  0  0  0
 27 31  1  0  0  0  0
 28 31  1  0  0  0  0
 29 35  1  0  0  0  0
 30 31  1  0  0  0  0
 30 40  1  0  0  0  0
 31 36  1  0  0  0  0
 32 34  1  0  0  0  0
  1 41  1  0  0  0  0
  2 42  1  0  0  0  0
  3 43  1  0  0  0  0
  4 44  1  0  0  0  0
  5 45  1  0  0  0  0
  6 46  1  0  0  0  0
  7 47  1  0  0  0  0
  8 48  1  0  0  0  0
 21 49  1  0  0  0  0
 21 50  1  0  0  0  0
 22 51  1  0  0  0  0
 22 52  1  0  0  0  0
 23 53  1  0  0  0  0
 24 54  1  0  0  0  0
 24 55  1  0  0  0  0
 24 56  1  0  0  0  0
 25 57  1  0  0  0  0
 25 58  1  0  0  0  0
 25 59  1  0  0  0  0
 26 60  1  0  0  0  0
 26 61  1  0  0  0  0
 26 62  1  0  0  0  0
 27 63  1  0  0  0  0
 27 64  1  0  0  0  0
 27 65  1  0  0  0  0
 28 66  1  0  0  0  0
 28 67  1  0  0  0  0
 28 68  1  0  0  0  0
 29 69  1  0  0  0  0
 29 70  1  0  0  0  0
 30 71  1  0  0  0  0
 30 72  1  0  0  0  0
 36 73  1  0  0  0  0
 39 74  1  0  0  0  0
 40 75  1  0  0  0  0
M  END
> <SMILES>
Cc1cc2nc(cc(c2c(c1-c1ccc(cc1)CN1CC[C@H](O)C1=O)C)-n1nccc1C)C(=O)NC(C)(C)CO

> <FORMATTED_ID>
H3D-009057

> <MOLFORMULA>
C31H35N5O4

> <Exact Mass>
541.27

> <XLogP>
3.59

> <TPSA_NOPS>
120.6

> <s_m_source_file>
ligprep_h3d.sdf

> <i_m_source_file_index>
1327

> <i_lp_mmshare_version>
55123

> <i_f3d_flags>
0

> <s_epik_input>
W09IXVtDSDJdQyhbQ0gzXSkoW0NIM10pW05IXUMoPU8pYyhuMSlbY0hdYygtbjJuW2NIXVtjSF1jMltDSDNdKWMoYzEzKWMoW0NIM10pYyhjKFtDSDNdKVtjSF0zKS1jNFtjSF1bY0hdYyhbY0hdW2NIXTQpW0NIMl1ONVtDSDJdW0NIMl1bQ0BIXShbT0hdKUM1PU8=

> <s_epik_cmdline>
J2VwaWtfcHl0aG9uJywgJy1waHQnLCAnMC41JywgJy1waCcsICc3LjUnLCAnLXRuJywgJzgnLCAnLW1hJywgJzUwMCcsICctaW1hZScsICc8aW5maWxlLm1hZT4nLCAnLW9tYWUnLCAnPG91dGZpbGUubWFlPic=

> <r_lp_tautomer_probability>
1

> <r_epik_Ionization_Penalty>
0.00026364

> <r_epik_Ionization_Penalty_Charging>
0

> <r_epik_Ionization_Penalty_Neutral>
0.00026364

> <r_epik_State_Penalty>
-0

> <r_epik_Charging_Adjusted_Penalty>
0

> <i_epik_Tot_Q>
0

> <i_epik_Tot_abs_Q>
0

> <s_lp_Force_Field>
S-OPLS

> <r_lp_Energy>
49.1811

> <b_lp_Chiralities_Consistent>
1

> <s_lp_Variant>
ligprep_h3d.sdf:1327-1

> <ROCS_ShapeQuery>
_7L13

> <ROCS_TanimotoCombo>
0.753 

> <ROCS_ShapeTanimoto>
0.616 

> <ROCS_ColorTanimoto>
0.137 

> <ROCS_RefTversky>
0.803 

> <ROCS_RefColorTversky>
0.311 

> <ROCS_RefTverskyCombo>
1.113 

> <ROCS_FitTversky>
0.726 

> <ROCS_FitColorTversky>
0.196 

> <ROCS_FitTverskyCombo>
0.923 

> <ROCS_ColorScore>
-2.889

> <ROCS_Overlap>
1340.948

> <ROCS_Rank>
192                 

$$$$
ligprep_h3d.sdf:1228_1015
  -OEChem-08212117123D

 68 72  0     1  0  0  0  0  0999 V2000
  -20.2602   -3.9347  -32.2554 C   0  0  0  0  0  0  0  0  0  0  0  0
  -20.8337   -6.2734  -32.0594 C   0  0  0  0  0  0  0  0  0  0  0  0
  -19.7552   -4.1657  -33.5349 C   0  0  0  0  0  0  0  0  0  0  0  0
  -20.3288   -6.5045  -33.3389 C   0  0  0  0  0  0  0  0  0  0  0  0
  -16.9877   -6.1474  -26.6137 C   0  0  0  0  0  0  0  0  0  0  0  0
  -23.1784   -4.1727  -28.7490 C   0  0  0  0  0  0  0  0  0  0  0  0
  -20.7660   -4.4815  -25.3793 C   0  0  0  0  0  0  0  0  0  0  0  0
  -16.7997   -4.7567  -26.7259 C   0  0  0  0  0  0  0  0  0  0  0  0
  -21.0254   -4.6193  -27.7790 C   0  0  0  0  0  0  0  0  0  0  0  0
  -20.7994   -4.9885  -31.5176 C   0  0  0  0  0  0  0  0  0  0  0  0
  -21.3254   -4.7477  -30.1842 C   0  0  0  0  0  0  0  0  0  0  0  0
  -19.7895   -5.4506  -34.0767 C   0  0  0  0  0  0  0  0  0  0  0  0
  -22.6629   -4.4064  -30.0263 C   0  0  0  0  0  0  0  0  0  0  0  0
  -20.5066   -4.8544  -29.0636 C   0  0  0  0  0  0  0  0  0  0  0  0
  -22.3825   -4.2725  -27.6112 C   0  0  0  0  0  0  0  0  0  0  0  0
  -20.2237   -4.7197  -26.6339 C   0  0  0  0  0  0  0  0  0  0  0  0
  -22.1037   -4.1481  -25.3151 C   0  0  0  0  0  0  0  0  0  0  0  0
  -18.3510   -6.3066  -26.5637 C   0  0  0  0  0  0  0  0  0  0  0  0
  -19.0563   -7.5978  -36.6983 C   0  0  0  0  0  0  0  0  0  0  0  0
  -22.7343   -3.8875  -24.0324 C   0  0  0  0  0  0  0  0  0  0  0  0
  -20.3209   -5.6702  -36.5157 C   0  0  0  0  0  0  0  0  0  0  0  0
  -19.2494   -5.6978  -35.4447 C   0  0  2  0  0  0  0  0  0  0  0  0
  -23.5860   -4.2769  -31.1962 C   0  0  0  0  0  0  0  0  0  0  0  0
  -19.0718   -5.2271  -29.3122 C   0  0  0  0  0  0  0  0  0  0  0  0
  -19.1711   -7.5284  -26.4472 C   0  0  0  0  0  0  0  0  0  0  0  0
  -28.1515   -6.4717  -22.8534 C   0  0  0  0  0  0  0  0  0  0  0  0
  -24.8698   -3.9640  -22.7193 C   0  0  0  0  0  0  0  0  0  0  0  0
  -26.3184   -4.3820  -22.8843 C   0  0  0  0  0  0  0  0  0  0  0  0
  -17.9514   -4.0807  -26.7460 N   0  0  0  0  0  0  0  0  0  0  0  0
  -22.9114   -4.0407  -26.3949 N   0  0  0  0  0  0  0  0  0  0  0  0
  -18.8763   -5.0506  -26.6460 N   0  0  0  0  0  0  0  0  0  0  0  0
  -19.9617   -6.7801  -37.3357 N   0  0  0  0  0  0  0  0  0  0  0  0
  -24.0974   -4.1881  -23.9201 N   0  0  0  0  0  0  0  0  0  0  0  0
  -18.6245   -8.6686  -37.1012 O   0  0  0  0  0  0  0  0  0  0  0  0
  -22.0800   -3.3988  -23.0933 O   0  0  0  0  0  0  0  0  0  0  0  0
  -26.3923   -6.1941  -24.7667 O   0  0  0  0  0  0  0  0  0  0  0  0
  -25.5958   -6.8590  -22.4655 O   0  0  0  0  0  0  0  0  0  0  0  0
  -18.7018   -7.0319  -35.4996 O   0  0  0  0  0  0  0  0  0  0  0  0
  -26.4799   -6.0854  -23.3205 S   0  0  0  0  0  0  0  0  0  0  0  0
  -20.2256   -2.9276  -31.8466 H   0  0  0  0  0  0  0  0  0  0  0  0
  -21.2514   -7.1051  -31.4969 H   0  0  0  0  0  0  0  0  0  0  0  0
  -19.3359   -3.3390  -34.1021 H   0  0  0  0  0  0  0  0  0  0  0  0
  -20.3601   -7.5087  -33.7535 H   0  0  0  0  0  0  0  0  0  0  0  0
  -16.2380   -6.9241  -26.5752 H   0  0  0  0  0  0  0  0  0  0  0  0
  -24.2291   -3.9060  -28.6401 H   0  0  0  0  0  0  0  0  0  0  0  0
  -20.1668   -4.5525  -24.4757 H   0  0  0  0  0  0  0  0  0  0  0  0
  -15.8714   -4.2080  -26.7939 H   0  0  0  0  0  0  0  0  0  0  0  0
  -21.3324   -5.8446  -36.1336 H   0  0  0  0  0  0  0  0  0  0  0  0
  -20.3130   -4.7467  -37.1009 H   0  0  0  0  0  0  0  0  0  0  0  0
  -18.4407   -4.9908  -35.6501 H   0  0  0  0  0  0  0  0  0  0  0  0
  -23.5739   -3.2491  -31.5746 H   0  0  0  0  0  0  0  0  0  0  0  0
  -23.2920   -4.9535  -32.0069 H   0  0  0  0  0  0  0  0  0  0  0  0
  -24.6139   -4.5370  -30.9176 H   0  0  0  0  0  0  0  0  0  0  0  0
  -18.9625   -6.3142  -29.2898 H   0  0  0  0  0  0  0  0  0  0  0  0
  -18.7383   -4.8542  -30.2846 H   0  0  0  0  0  0  0  0  0  0  0  0
  -18.4206   -4.7865  -28.5520 H   0  0  0  0  0  0  0  0  0  0  0  0
  -19.3633   -7.7786  -25.3910 H   0  0  0  0  0  0  0  0  0  0  0  0
  -20.1477   -7.4207  -26.9492 H   0  0  0  0  0  0  0  0  0  0  0  0
  -18.6827   -8.4006  -26.9148 H   0  0  0  0  0  0  0  0  0  0  0  0
  -28.3418   -7.5197  -23.0903 H   0  0  0  0  0  0  0  0  0  0  0  0
  -28.2590   -6.2963  -21.7819 H   0  0  0  0  0  0  0  0  0  0  0  0
  -28.8248   -5.8239  -23.4167 H   0  0  0  0  0  0  0  0  0  0  0  0
  -24.7843   -2.9030  -22.4648 H   0  0  0  0  0  0  0  0  0  0  0  0
  -24.3977   -4.5486  -21.9239 H   0  0  0  0  0  0  0  0  0  0  0  0
  -26.7892   -3.8136  -23.6919 H   0  0  0  0  0  0  0  0  0  0  0  0
  -26.8922   -4.2310  -21.9650 H   0  0  0  0  0  0  0  0  0  0  0  0
  -20.3264   -6.9457  -38.2684 H   0  0  0  0  0  0  0  0  0  0  0  0
  -24.5989   -4.5259  -24.7351 H   0  0  0  0  0  0  0  0  0  0  0  0
  1  3  1  0  0  0  0
  1 10  2  0  0  0  0
  2  4  2  0  0  0  0
  2 10  1  0  0  0  0
  3 12  2  0  0  0  0
  4 12  1  0  0  0  0
  5  8  1  0  0  0  0
  5 18  2  0  0  0  0
  6 13  2  0  0  0  0
  6 15  1  0  0  0  0
  7 16  1  0  0  0  0
  7 17  2  0  0  0  0
  8 29  2  0  0  0  0
  9 14  1  0  0  0  0
  9 15  1  0  0  0  0
  9 16  2  0  0  0  0
 10 11  1  0  0  0  0
 11 13  1  0  0  0  0
 11 14  2  0  0  0  0
 12 22  1  0  0  0  0
 13 23  1  0  0  0  0
 14 24  1  0  0  0  0
 15 30  2  0  0  0  0
 16 31  1  0  0  0  0
 17 20  1  0  0  0  0
 17 30  1  0  0  0  0
 18 25  1  0  0  0  0
 18 31  1  0  0  0  0
 19 32  1  0  0  0  0
 19 34  2  0  0  0  0
 19 38  1  0  0  0  0
 20 33  1  0  0  0  0
 20 35  2  0  0  0  0
 21 22  1  0  0  0  0
 21 32  1  0  0  0  0
 22 38  1  0  0  0  0
 26 39  1  0  0  0  0
 27 28  1  0  0  0  0
 27 33  1  0  0  0  0
 28 39  1  0  0  0  0
 29 31  1  0  0  0  0
 36 39  2  0  0  0  0
 37 39  2  0  0  0  0
  1 40  1  0  0  0  0
  2 41  1  0  0  0  0
  3 42  1  0  0  0  0
  4 43  1  0  0  0  0
  5 44  1  0  0  0  0
  6 45  1  0  0  0  0
  7 46  1  0  0  0  0
  8 47  1  0  0  0  0
 21 48  1  0  0  0  0
 21 49  1  0  0  0  0
 22 50  1  0  0  0  0
 23 51  1  0  0  0  0
 23 52  1  0  0  0  0
 23 53  1  0  0  0  0
 24 54  1  0  0  0  0
 24 55  1  0  0  0  0
 24 56  1  0  0  0  0
 25 57  1  0  0  0  0
 25 58  1  0  0  0  0
 25 59  1  0  0  0  0
 26 60  1  0  0  0  0
 26 61  1  0  0  0  0
 26 62  1  0  0  0  0
 27 63  1  0  0  0  0
 27 64  1  0  0  0  0
 28 65  1  0  0  0  0
 28 66  1  0  0  0  0
 32 67  1  0  0  0  0
 33 68  1  0  0  0  0
M  END
> <SMILES>
Cc1cc2nc(cc(c2c(c1-c1ccc(cc1)C1CNC(=O)O1)C)-n1nccc1C)C(=O)NCCS(=O)(=O)C

> <FORMATTED_ID>
H3D-008416

> <MOLFORMULA>
C28H29N5O5S

> <Exact Mass>
547.19

> <XLogP>
2.74

> <TPSA_NOPS>
140.7

> <s_m_source_file>
ligprep_h3d.sdf

> <i_m_source_file_index>
1228

> <i_lp_mmshare_version>
55123

> <i_f3d_flags>
0

> <s_epik_input>
Tz1DKE8xKVtOSF1bQ0gyXVtDQEhdMWMoW2NIXVtjSF0yKVtjSF1bY0hdYzItYyhjKFtDSDNdKVtjSF0zKWMoW0NIM10pYyhjMzQpYygtbjVuW2NIXVtjSF1jNVtDSDNdKVtjSF1jKG40KUMoPU8pW05IXVtDSDJdW0NIMl1TKD1PKSg9TylbQ0gzXQ==

> <s_epik_cmdline>
J2VwaWtfcHl0aG9uJywgJy1waHQnLCAnMC41JywgJy1waCcsICc3LjUnLCAnLXRuJywgJzgnLCAnLW1hJywgJzUwMCcsICctaW1hZScsICc8aW5maWxlLm1hZT4nLCAnLW9tYWUnLCAnPG91dGZpbGUubWFlPic=

> <r_lp_tautomer_probability>
1

> <r_epik_Ionization_Penalty>
2.32545e-05

> <r_epik_Ionization_Penalty_Charging>
0

> <r_epik_Ionization_Penalty_Neutral>
2.32545e-05

> <r_epik_State_Penalty>
-0

> <r_epik_Charging_Adjusted_Penalty>
0

> <i_epik_Tot_Q>
0

> <i_epik_Tot_abs_Q>
0

> <s_epik_Chemistry_Notes>
This compound has an ester and may undergo hydrolysis at high or low pH.

> <s_lp_Force_Field>
S-OPLS

> <r_lp_Energy>
29.4277

> <b_lp_Chiralities_Consistent>
1

> <s_lp_Variant>
ligprep_h3d.sdf:1228-1

> <ROCS_ShapeQuery>
_7L13

> <ROCS_TanimotoCombo>
0.732 

> <ROCS_ShapeTanimoto>
0.630 

> <ROCS_ColorTanimoto>
0.102 

> <ROCS_RefTversky>
0.803 

> <ROCS_RefColorTversky>
0.221 

> <ROCS_RefTverskyCombo>
1.023 

> <ROCS_FitTversky>
0.746 

> <ROCS_FitColorTversky>
0.159 

> <ROCS_FitTverskyCombo>
0.905 

> <ROCS_ColorScore>
-2.031

> <ROCS_Overlap>
1338.437

> <ROCS_Rank>
193                 

$$$$
ligprep_h3d.sdf:5062_1563
  -OEChem-08212117123D

 63 67  0     1  0  0  0  0  0999 V2000
  -22.2736   -3.6536  -33.1226 C   0  0  0  0  0  0  0  0  0  0  0  0
  -23.4874   -3.8707  -23.8493 C   0  0  0  0  0  0  0  0  0  0  0  0
  -24.9333   -5.4717  -24.9371 C   0  0  0  0  0  0  0  0  0  0  0  0
  -22.0771   -3.6457  -34.5035 C   0  0  0  0  0  0  0  0  0  0  0  0
  -24.4576   -3.6602  -22.8695 C   0  0  0  0  0  0  0  0  0  0  0  0
  -25.9035   -5.2612  -23.9572 C   0  0  0  0  0  0  0  0  0  0  0  0
  -20.8606   -5.6041  -32.9328 C   0  0  0  0  0  0  0  0  0  0  0  0
  -15.5680   -6.3204  -25.5376 C   0  0  0  0  0  0  0  0  0  0  0  0
  -16.2717   -4.8073  -23.7906 C   0  0  0  0  0  0  0  0  0  0  0  0
  -14.3015   -6.1720  -23.4855 C   0  0  0  0  0  0  0  0  0  0  0  0
  -21.6653   -4.6328  -32.3372 C   0  0  0  0  0  0  0  0  0  0  0  0
  -20.6642   -5.5963  -34.3137 C   0  0  0  0  0  0  0  0  0  0  0  0
  -16.4593   -5.3612  -25.0569 C   0  0  0  0  0  0  0  0  0  0  0  0
  -23.7253   -4.7764  -24.8831 C   0  0  0  0  0  0  0  0  0  0  0  0
  -21.2725   -4.6170  -35.0991 C   0  0  0  0  0  0  0  0  0  0  0  0
  -25.6656   -4.3554  -22.9234 C   0  0  0  0  0  0  0  0  0  0  0  0
  -14.4891   -6.7259  -24.7518 C   0  0  0  0  0  0  0  0  0  0  0  0
  -15.1928   -5.2127  -23.0048 C   0  0  0  0  0  0  0  0  0  0  0  0
  -20.8128   -3.8046  -30.1849 C   0  0  0  0  0  0  0  0  0  0  0  0
  -21.0073   -5.3252  -28.1632 C   0  0  0  0  0  0  0  0  0  0  0  0
  -17.9634   -5.3447  -27.1485 C   0  0  0  0  0  0  0  0  0  0  0  0
  -18.3920   -3.8131  -25.7694 C   0  0  0  0  0  0  0  0  0  0  0  0
  -19.4296   -3.4762  -28.1558 C   0  0  0  0  0  0  0  0  0  0  0  0
  -20.5053   -5.1495  -26.7310 C   0  0  1  0  0  0  0  0  0  0  0  0
  -19.1841   -4.3984  -26.9649 C   0  0  0  0  0  0  0  0  0  0  0  0
  -21.4911   -4.3299  -25.9002 C   0  0  0  0  0  0  0  0  0  0  0  0
  -21.8778   -4.6412  -30.8476 C   0  0  0  0  0  0  0  0  0  0  0  0
  -19.7893   -6.6638  -34.8978 C   0  0  0  0  0  0  0  0  0  0  0  0
  -17.5435   -4.9530  -25.8466 N   0  0  0  0  0  0  0  0  0  0  0  0
  -20.4542   -4.1930  -28.9039 N   0  0  0  0  0  0  0  0  0  0  0  0
  -22.7537   -4.9872  -25.8643 N   0  0  0  0  0  0  0  0  0  0  0  0
  -21.1049   -4.5918  -36.3707 O   0  5  0  0  0  0  0  0  0  0  0  0
  -20.3212   -2.8414  -30.7757 O   0  0  0  0  0  0  0  0  0  0  0  0
  -26.5973   -4.1533  -21.9825 F   0  0  0  0  0  0  0  0  0  0  0  0
  -13.6324   -7.6457  -25.2145 F   0  0  0  0  0  0  0  0  0  0  0  0
  -15.0116   -4.6793  -21.7896 F   0  0  0  0  0  0  0  0  0  0  0  0
  -23.0994   -4.1529  -30.4945 F   0  0  0  0  0  0  0  0  0  0  0  0
  -21.8347   -5.8979  -30.3239 F   0  0  0  0  0  0  0  0  0  0  0  0
  -19.2902   -7.5235  -33.9652 F   0  0  0  0  0  0  0  0  0  0  0  0
  -20.4314   -7.4493  -35.8081 F   0  0  0  0  0  0  0  0  0  0  0  0
  -18.7078   -6.1493  -35.5467 F   0  0  0  0  0  0  0  0  0  0  0  0
  -22.9023   -2.8932  -32.6670 H   0  0  0  0  0  0  0  0  0  0  0  0
  -22.5494   -3.3238  -23.7974 H   0  0  0  0  0  0  0  0  0  0  0  0
  -25.1293   -6.1796  -25.7384 H   0  0  0  0  0  0  0  0  0  0  0  0
  -22.5642   -2.8697  -35.0922 H   0  0  0  0  0  0  0  0  0  0  0  0
  -24.2727   -2.9553  -22.0643 H   0  0  0  0  0  0  0  0  0  0  0  0
  -26.8444   -5.8020  -23.9989 H   0  0  0  0  0  0  0  0  0  0  0  0
  -20.3875   -6.3671  -32.3187 H   0  0  0  0  0  0  0  0  0  0  0  0
  -15.7043   -6.7578  -26.5231 H   0  0  0  0  0  0  0  0  0  0  0  0
  -16.9597   -4.0585  -23.4067 H   0  0  0  0  0  0  0  0  0  0  0  0
  -13.4605   -6.4870  -22.8749 H   0  0  0  0  0  0  0  0  0  0  0  0
  -20.5898   -6.2315  -28.6153 H   0  0  0  0  0  0  0  0  0  0  0  0
  -22.0961   -5.3620  -28.2574 H   0  0  0  0  0  0  0  0  0  0  0  0
  -18.1951   -6.4150  -27.2049 H   0  0  0  0  0  0  0  0  0  0  0  0
  -17.2447   -5.0818  -27.9305 H   0  0  0  0  0  0  0  0  0  0  0  0
  -17.8655   -2.8714  -25.9491 H   0  0  0  0  0  0  0  0  0  0  0  0
  -18.9364   -3.7658  -24.8195 H   0  0  0  0  0  0  0  0  0  0  0  0
  -19.8516   -2.5119  -27.8472 H   0  0  0  0  0  0  0  0  0  0  0  0
  -18.5442   -3.2980  -28.7761 H   0  0  0  0  0  0  0  0  0  0  0  0
  -20.3536   -6.1202  -26.2479 H   0  0  0  0  0  0  0  0  0  0  0  0
  -21.0744   -4.2437  -24.8983 H   0  0  0  0  0  0  0  0  0  0  0  0
  -21.5794   -3.3543  -26.3749 H   0  0  0  0  0  0  0  0  0  0  0  0
  -22.9841   -5.6619  -26.5985 H   0  0  0  0  0  0  0  0  0  0  0  0
  1  4  1  0  0  0  0
  1 11  2  0  0  0  0
  2  5  1  0  0  0  0
  2 14  2  0  0  0  0
  3  6  2  0  0  0  0
  3 14  1  0  0  0  0
  4 15  2  0  0  0  0
  5 16  2  0  0  0  0
  6 16  1  0  0  0  0
  7 11  1  0  0  0  0
  7 12  2  0  0  0  0
  8 13  2  0  0  0  0
  8 17  1  0  0  0  0
  9 13  1  0  0  0  0
  9 18  2  0  0  0  0
 10 17  2  0  0  0  0
 10 18  1  0  0  0  0
 11 27  1  0  0  0  0
 12 15  1  0  0  0  0
 12 28  1  0  0  0  0
 13 29  1  0  0  0  0
 14 31  1  0  0  0  0
 15 32  1  0  0  0  0
 16 34  1  0  0  0  0
 17 35  1  0  0  0  0
 18 36  1  0  0  0  0
 19 27  1  0  0  0  0
 19 30  1  0  0  0  0
 19 33  2  0  0  0  0
 20 24  1  0  0  0  0
 20 30  1  0  0  0  0
 21 25  1  0  0  0  0
 21 29  1  0  0  0  0
 22 25  1  0  0  0  0
 22 29  1  0  0  0  0
 23 25  1  0  0  0  0
 23 30  1  0  0  0  0
 24 25  1  0  0  0  0
 24 26  1  0  0  0  0
 26 31  1  0  0  0  0
 27 37  1  0  0  0  0
 27 38  1  0  0  0  0
 28 39  1  0  0  0  0
 28 40  1  0  0  0  0
 28 41  1  0  0  0  0
  1 42  1  0  0  0  0
  2 43  1  0  0  0  0
  3 44  1  0  0  0  0
  4 45  1  0  0  0  0
  5 46  1  0  0  0  0
  6 47  1  0  0  0  0
  7 48  1  0  0  0  0
  8 49  1  0  0  0  0
  9 50  1  0  0  0  0
 10 51  1  0  0  0  0
 20 52  1  0  0  0  0
 20 53  1  0  0  0  0
 21 54  1  0  0  0  0
 21 55  1  0  0  0  0
 22 56  1  0  0  0  0
 22 57  1  0  0  0  0
 23 58  1  0  0  0  0
 23 59  1  0  0  0  0
 24 60  1  0  0  0  0
 26 61  1  0  0  0  0
 26 62  1  0  0  0  0
 31 63  1  0  0  0  0
M  CHG  1  32  -1
M  END
> <SMILES>
Oc1ccc(cc1C(F)(F)F)C(F)(F)C(=O)N1CC(CNc2ccc(cc2)F)C2(C1)CN(C2)c1cc(cc(c1)F)F

> <FORMATTED_ID>
H3D-009436

> <MOLFORMULA>
C28H23F8N3O2

> <Exact Mass>
585.17

> <XLogP>
5.69

> <TPSA_NOPS>
55.8

> <s_m_source_file>
ligprep_h3d.sdf

> <i_m_source_file_index>
5062

> <i_lp_mmshare_version>
55123

> <i_f3d_flags>
0

> <s_epik_input>
W09IXWMxW2NIXVtjSF1jKFtjSF1jMUMoRikoRilGKUMoRikoRilDKD1PKU4oW0NIMl0yKVtDSDJdW0NASF0oW0NIMl1bTkhdYzNbY0hdW2NIXWMoRilbY0hdW2NIXTMpQzI0W0NIMl1OKFtDSDJdNCljNVtjSF1jKEYpW2NIXWMoRilbY0hdNQ==

> <s_epik_cmdline>
J2VwaWtfcHl0aG9uJywgJy1waHQnLCAnMC41JywgJy1waCcsICc3LjUnLCAnLXRuJywgJzgnLCAnLW1hJywgJzUwMCcsICctaW1hZScsICc8aW5maWxlLm1hZT4nLCAnLW9tYWUnLCAnPG91dGZpbGUubWFlPic=

> <r_epik_Ionization_Penalty>
0.159562

> <r_epik_Ionization_Penalty_Charging>
0.157598

> <r_epik_Ionization_Penalty_Neutral>
0.00196463

> <r_epik_State_Penalty>
0.146899

> <r_epik_Charging_Adjusted_Penalty>
0.304497

> <i_epik_Tot_Q>
-1

> <i_epik_Tot_abs_Q>
1

> <s_lp_Force_Field>
S-OPLS

> <r_lp_Energy>
42.9127

> <b_lp_Chiralities_Consistent>
1

> <s_lp_Variant>
ligprep_h3d.sdf:5062-1

> <ROCS_ShapeQuery>
_7L13

> <ROCS_TanimotoCombo>
0.666 

> <ROCS_ShapeTanimoto>
0.603 

> <ROCS_ColorTanimoto>
0.063 

> <ROCS_RefTversky>
0.803 

> <ROCS_RefColorTversky>
0.119 

> <ROCS_RefTverskyCombo>
0.922 

> <ROCS_FitTversky>
0.708 

> <ROCS_FitColorTversky>
0.119 

> <ROCS_FitTverskyCombo>
0.827 

> <ROCS_ColorScore>
-1.071

> <ROCS_Overlap>
1342.744

> <ROCS_Rank>
194                 

$$$$
ligprep_h3d.sdf:1363_1791
  -OEChem-08212117123D

 67 71  0     0  0  0  0  0  0999 V2000
  -16.9531   -6.6082  -26.4477 C   0  0  0  0  0  0  0  0  0  0  0  0
  -16.0150   -5.5789  -26.5260 C   0  0  0  0  0  0  0  0  0  0  0  0
  -18.3162   -6.3134  -26.4791 C   0  0  0  0  0  0  0  0  0  0  0  0
  -20.1172   -3.9080  -32.2444 C   0  0  0  0  0  0  0  0  0  0  0  0
  -20.6219   -6.2632  -32.0557 C   0  0  0  0  0  0  0  0  0  0  0  0
  -19.5822   -4.1244  -33.5142 C   0  0  0  0  0  0  0  0  0  0  0  0
  -20.0869   -6.4796  -33.3255 C   0  0  0  0  0  0  0  0  0  0  0  0
  -16.4399   -4.2549  -26.6357 C   0  0  0  0  0  0  0  0  0  0  0  0
  -20.7354   -4.4653  -25.3772 C   0  0  0  0  0  0  0  0  0  0  0  0
  -23.0914   -4.2333  -28.7927 C   0  0  0  0  0  0  0  0  0  0  0  0
  -20.9446   -4.6126  -27.7812 C   0  0  0  0  0  0  0  0  0  0  0  0
  -20.6371   -4.9774  -31.5151 C   0  0  0  0  0  0  0  0  0  0  0  0
  -18.7411   -4.9894  -26.5888 C   0  0  0  0  0  0  0  0  0  0  0  0
  -20.1622   -4.6875  -26.6210 C   0  0  0  0  0  0  0  0  0  0  0  0
  -21.1945   -4.7518  -30.1915 C   0  0  0  0  0  0  0  0  0  0  0  0
  -19.5671   -5.4102  -34.0548 C   0  0  0  0  0  0  0  0  0  0  0  0
  -22.5446   -4.4519  -30.0596 C   0  0  0  0  0  0  0  0  0  0  0  0
  -20.3944   -4.8324  -29.0554 C   0  0  0  0  0  0  0  0  0  0  0  0
  -22.3147   -4.3078  -27.6398 C   0  0  0  0  0  0  0  0  0  0  0  0
  -17.8030   -3.9601  -26.6671 C   0  0  0  0  0  0  0  0  0  0  0  0
  -22.0838   -4.1733  -25.3389 C   0  0  0  0  0  0  0  0  0  0  0  0
  -22.7457   -3.9299  -24.0687 C   0  0  0  0  0  0  0  0  0  0  0  0
  -24.4220   -4.7736  -21.6195 C   0  0  0  0  0  0  0  0  0  0  0  0
  -18.9586   -8.2168  -36.9864 C   0  0  0  0  0  0  0  0  0  0  0  0
  -26.4013   -3.9113  -22.9253 C   0  0  0  0  0  0  0  0  0  0  0  0
  -25.5607   -2.7276  -22.5605 C   0  0  0  0  0  0  0  0  0  0  0  0
  -24.9017   -4.0698  -22.7948 C   0  0  0  0  0  0  0  0  0  0  0  0
  -23.4492   -4.3525  -31.2469 C   0  0  0  0  0  0  0  0  0  0  0  0
  -18.9459   -5.1617  -29.2838 C   0  0  0  0  0  0  0  0  0  0  0  0
  -18.9948   -5.6416  -35.4124 C   0  0  0  0  0  0  0  0  0  0  0  0
  -19.4292   -6.8387  -37.3875 C   0  0  0  0  0  0  0  0  0  0  0  0
  -22.8737   -4.0916  -26.4341 N   0  0  0  0  0  0  0  0  0  0  0  0
  -17.8806   -8.6408  -37.7324 N   0  0  0  0  0  0  0  0  0  0  0  0
  -24.1007   -4.2722  -23.9807 N   0  0  0  0  0  0  0  0  0  0  0  0
  -24.1889   -4.0472  -20.6140 O   0  5  0  0  0  0  0  0  0  0  0  0
  -22.1241   -3.4194  -23.1190 O   0  0  0  0  0  0  0  0  0  0  0  0
  -24.3022   -6.0227  -21.7624 O   0  0  0  0  0  0  0  0  0  0  0  0
  -19.4810   -8.8814  -36.0963 O   0  0  0  0  0  0  0  0  0  0  0  0
  -19.9981   -6.1849  -36.2617 O   0  0  0  0  0  0  0  0  0  0  0  0
  -18.1949   -2.6818  -26.7712 F   0  0  0  0  0  0  0  0  0  0  0  0
  -16.6220   -7.6390  -26.3625 H   0  0  0  0  0  0  0  0  0  0  0  0
  -14.9538   -5.8084  -26.5015 H   0  0  0  0  0  0  0  0  0  0  0  0
  -19.0350   -7.1270  -26.4168 H   0  0  0  0  0  0  0  0  0  0  0  0
  -20.1212   -2.9000  -31.8364 H   0  0  0  0  0  0  0  0  0  0  0  0
  -21.0240   -7.1069  -31.4998 H   0  0  0  0  0  0  0  0  0  0  0  0
  -19.1783   -3.2856  -34.0748 H   0  0  0  0  0  0  0  0  0  0  0  0
  -20.0797   -7.4846  -33.7393 H   0  0  0  0  0  0  0  0  0  0  0  0
  -15.7096   -3.4534  -26.6966 H   0  0  0  0  0  0  0  0  0  0  0  0
  -20.1543   -4.5166  -24.4607 H   0  0  0  0  0  0  0  0  0  0  0  0
  -24.1517   -3.9991  -28.7044 H   0  0  0  0  0  0  0  0  0  0  0  0
  -27.0391   -4.3315  -22.1565 H   0  0  0  0  0  0  0  0  0  0  0  0
  -26.8368   -3.9316  -23.9177 H   0  0  0  0  0  0  0  0  0  0  0  0
  -25.4322   -1.9531  -23.3078 H   0  0  0  0  0  0  0  0  0  0  0  0
  -25.6336   -2.3521  -21.5464 H   0  0  0  0  0  0  0  0  0  0  0  0
  -23.4623   -3.3252  -31.6265 H   0  0  0  0  0  0  0  0  0  0  0  0
  -23.1188   -5.0202  -32.0509 H   0  0  0  0  0  0  0  0  0  0  0  0
  -24.4734   -4.6446  -30.9873 H   0  0  0  0  0  0  0  0  0  0  0  0
  -18.8041   -6.2451  -29.2601 H   0  0  0  0  0  0  0  0  0  0  0  0
  -18.6098   -4.7785  -30.2513 H   0  0  0  0  0  0  0  0  0  0  0  0
  -18.3188   -4.7023  -28.5144 H   0  0  0  0  0  0  0  0  0  0  0  0
  -18.6272   -4.7067  -35.8572 H   0  0  0  0  0  0  0  0  0  0  0  0
  -18.1491   -6.3417  -35.3725 H   0  0  0  0  0  0  0  0  0  0  0  0
  -20.1853   -6.9252  -38.1739 H   0  0  0  0  0  0  0  0  0  0  0  0
  -18.5787   -6.2544  -37.7518 H   0  0  0  0  0  0  0  0  0  0  0  0
  -17.4846   -8.0531  -38.4585 H   0  0  0  0  0  0  0  0  0  0  0  0
  -17.4430   -9.5454  -37.5882 H   0  0  0  0  0  0  0  0  0  0  0  0
  -24.5764   -4.6269  -24.8039 H   0  0  0  0  0  0  0  0  0  0  0  0
  1  2  2  0  0  0  0
  1  3  1  0  0  0  0
  2  8  1  0  0  0  0
  3 13  2  0  0  0  0
  4  6  1  0  0  0  0
  4 12  2  0  0  0  0
  5  7  2  0  0  0  0
  5 12  1  0  0  0  0
  6 16  2  0  0  0  0
  7 16  1  0  0  0  0
  8 20  2  0  0  0  0
  9 14  1  0  0  0  0
  9 21  2  0  0  0  0
 10 17  2  0  0  0  0
 10 19  1  0  0  0  0
 11 14  2  0  0  0  0
 11 18  1  0  0  0  0
 11 19  1  0  0  0  0
 12 15  1  0  0  0  0
 13 14  1  0  0  0  0
 13 20  1  0  0  0  0
 15 17  1  0  0  0  0
 15 18  2  0  0  0  0
 16 30  1  0  0  0  0
 17 28  1  0  0  0  0
 18 29  1  0  0  0  0
 19 32  2  0  0  0  0
 20 40  1  0  0  0  0
 21 22  1  0  0  0  0
 21 32  1  0  0  0  0
 22 34  1  0  0  0  0
 22 36  2  0  0  0  0
 23 27  1  0  0  0  0
 23 35  1  0  0  0  0
 23 37  2  0  0  0  0
 24 31  1  0  0  0  0
 24 33  1  0  0  0  0
 24 38  2  0  0  0  0
 25 26  1  0  0  0  0
 25 27  1  0  0  0  0
 26 27  1  0  0  0  0
 27 34  1  0  0  0  0
 30 39  1  0  0  0  0
 31 39  1  0  0  0  0
  1 41  1  0  0  0  0
  2 42  1  0  0  0  0
  3 43  1  0  0  0  0
  4 44  1  0  0  0  0
  5 45  1  0  0  0  0
  6 46  1  0  0  0  0
  7 47  1  0  0  0  0
  8 48  1  0  0  0  0
  9 49  1  0  0  0  0
 10 50  1  0  0  0  0
 25 51  1  0  0  0  0
 25 52  1  0  0  0  0
 26 53  1  0  0  0  0
 26 54  1  0  0  0  0
 28 55  1  0  0  0  0
 28 56  1  0  0  0  0
 28 57  1  0  0  0  0
 29 58  1  0  0  0  0
 29 59  1  0  0  0  0
 29 60  1  0  0  0  0
 30 61  1  0  0  0  0
 30 62  1  0  0  0  0
 31 63  1  0  0  0  0
 31 64  1  0  0  0  0
 33 65  1  0  0  0  0
 33 66  1  0  0  0  0
 34 67  1  0  0  0  0
M  CHG  1  35  -1
M  END
> <SMILES>
Cc1cc2nc(cc(c2c(c1-c1ccc(cc1)COCC(=O)N)C)-c1ccccc1F)C(=O)NC1(CC1)C(=O)O

> <FORMATTED_ID>
H3D-009196

> <MOLFORMULA>
C31H28FN3O5

> <Exact Mass>
541.2

> <XLogP>
2.09

> <TPSA_NOPS>
131.6

> <s_m_source_file>
ligprep_h3d.sdf

> <i_m_source_file_index>
1363

> <i_lp_mmshare_version>
55123

> <i_f3d_flags>
0

> <s_epik_input>
Tz1DKFtOSDJdKVtDSDJdT1tDSDJdYyhbY0hdW2NIXTEpW2NIXVtjSF1jMS1jKGMoW0NIM10pW2NIXTIpYyhbQ0gzXSljKGMyMyljKC1jNFtjSF1bY0hdW2NIXVtjSF1jNEYpW2NIXWMobjMpQyg9TylbTkhdQzUoW0NIMl1bQ0gyXTUpQyg9TylbT0hd

> <s_epik_cmdline>
J2VwaWtfcHl0aG9uJywgJy1waHQnLCAnMC41JywgJy1waCcsICc3LjUnLCAnLXRuJywgJzgnLCAnLW1hJywgJzUwMCcsICctaW1hZScsICc8aW5maWxlLm1hZT4nLCAnLW9tYWUnLCAnPG91dGZpbGUubWFlPic=

> <r_lp_tautomer_probability>
1

> <r_epik_Ionization_Penalty>
0.000945541

> <r_epik_Ionization_Penalty_Charging>
0.000123838

> <r_epik_Ionization_Penalty_Neutral>
0.000821703

> <r_epik_State_Penalty>
-0

> <r_epik_Charging_Adjusted_Penalty>
0.000123838

> <i_epik_Tot_Q>
-1

> <i_epik_Tot_abs_Q>
1

> <s_lp_Force_Field>
S-OPLS

> <r_lp_Energy>
84.4043

> <b_lp_Chiralities_Consistent>
1

> <s_lp_Variant>
ligprep_h3d.sdf:1363-1

> <ROCS_ShapeQuery>
_7L13

> <ROCS_TanimotoCombo>
0.718 

> <ROCS_ShapeTanimoto>
0.617 

> <ROCS_ColorTanimoto>
0.101 

> <ROCS_RefTversky>
0.802 

> <ROCS_RefColorTversky>
0.220 

> <ROCS_RefTverskyCombo>
1.022 

> <ROCS_FitTversky>
0.728 

> <ROCS_FitColorTversky>
0.158 

> <ROCS_FitTverskyCombo>
0.886 

> <ROCS_ColorScore>
-2.024

> <ROCS_Overlap>
1339.956

> <ROCS_Rank>
195                 

$$$$
ligprep_h3d.sdf:2997_514
  -OEChem-08212117123D

 67 72  0     0  0  0  0  0  0999 V2000
  -19.8265   -8.2180  -35.1399 C   0  0  0  0  0  0  0  0  0  0  0  0
  -16.8855   -3.5789  -26.0950 C   0  0  0  0  0  0  0  0  0  0  0  0
  -18.3921   -5.4586  -25.9100 C   0  0  0  0  0  0  0  0  0  0  0  0
  -21.1057   -3.3321  -24.4857 C   0  0  0  0  0  0  0  0  0  0  0  0
  -15.8876   -4.3160  -25.4575 C   0  0  0  0  0  0  0  0  0  0  0  0
  -17.3941   -6.1957  -25.2726 C   0  0  0  0  0  0  0  0  0  0  0  0
  -22.1320   -3.4949  -23.5493 C   0  0  0  0  0  0  0  0  0  0  0  0
  -19.8639   -9.0216  -36.2814 C   0  0  0  0  0  0  0  0  0  0  0  0
  -19.4901   -4.6051  -34.3141 C   0  0  0  0  0  0  0  0  0  0  0  0
  -23.4448   -4.8244  -25.1103 C   0  0  0  0  0  0  0  0  0  0  0  0
  -19.6102   -7.0680  -37.6816 C   0  0  0  0  0  0  0  0  0  0  0  0
  -19.3885   -4.1007  -35.5999 C   0  0  0  0  0  0  0  0  0  0  0  0
  -19.6801   -6.8266  -35.2550 C   0  0  0  0  0  0  0  0  0  0  0  0
  -18.1378   -4.1502  -26.3212 C   0  0  0  0  0  0  0  0  0  0  0  0
  -22.4237   -4.6708  -26.0633 C   0  0  0  0  0  0  0  0  0  0  0  0
  -21.2899   -3.9352  -25.7303 C   0  0  0  0  0  0  0  0  0  0  0  0
  -19.5719   -6.2570  -36.5430 C   0  0  0  0  0  0  0  0  0  0  0  0
  -19.6368   -5.9771  -34.1413 C   0  0  0  0  0  0  0  0  0  0  0  0
  -16.1418   -5.6244  -25.0463 C   0  0  0  0  0  0  0  0  0  0  0  0
  -23.2816   -4.2275  -23.8539 C   0  0  0  0  0  0  0  0  0  0  0  0
  -19.7561   -8.4481  -37.5479 C   0  0  0  0  0  0  0  0  0  0  0  0
  -21.1784   -4.7161  -27.7973 C   0  0  0  0  0  0  0  0  0  0  0  0
  -19.3022   -6.4447  -30.4467 C   0  0  0  0  0  0  0  0  0  0  0  0
  -21.0461   -4.9450  -31.4503 C   0  0  0  0  0  0  0  0  0  0  0  0
  -19.3145   -5.5930  -29.1767 C   0  0  0  0  0  0  0  0  0  0  0  0
  -21.0247   -4.0985  -30.1801 C   0  0  0  0  0  0  0  0  0  0  0  0
  -19.6969   -5.6294  -31.6789 C   0  0  0  0  0  0  0  0  0  0  0  0
  -24.0937   -5.8807  -21.7656 C   0  0  0  0  0  0  0  0  0  0  0  0
  -19.2147   -3.3558  -27.0096 C   0  0  0  0  0  0  0  0  0  0  0  0
  -22.3365   -5.1481  -27.3510 N   0  0  0  0  0  0  0  0  0  0  0  0
  -20.5106   -3.9808  -26.8578 N   0  0  0  0  0  0  0  0  0  0  0  0
  -19.4314   -4.9227  -36.6568 N   0  3  0  0  0  0  0  0  0  0  0  0
  -20.6071   -4.9156  -29.0341 N   0  0  0  0  0  0  0  0  0  0  0  0
  -19.7366   -6.4662  -32.8527 N   0  0  0  0  0  0  0  0  0  0  0  0
  -24.4332   -3.2811  -21.7296 O   0  0  0  0  0  0  0  0  0  0  0  0
  -25.7991   -4.6735  -23.3238 O   0  0  0  0  0  0  0  0  0  0  0  0
  -15.1827   -6.3333  -24.4366 F   0  0  0  0  0  0  0  0  0  0  0  0
  -24.5370   -4.4034  -22.6502 S   0  0  0  0  0  0  0  0  0  0  0  0
  -19.8033   -9.4468  -38.9491 Cl  0  0  0  0  0  0  0  0  0  0  0  0
  -19.9133   -8.7014  -34.1698 H   0  0  0  0  0  0  0  0  0  0  0  0
  -16.6783   -2.5599  -26.4111 H   0  0  0  0  0  0  0  0  0  0  0  0
  -19.3647   -5.9121  -26.0823 H   0  0  0  0  0  0  0  0  0  0  0  0
  -20.2138   -2.7634  -24.2481 H   0  0  0  0  0  0  0  0  0  0  0  0
  -14.9125   -3.8717  -25.2820 H   0  0  0  0  0  0  0  0  0  0  0  0
  -17.5918   -7.2142  -24.9519 H   0  0  0  0  0  0  0  0  0  0  0  0
  -22.0208   -3.0376  -22.5684 H   0  0  0  0  0  0  0  0  0  0  0  0
  -19.9786  -10.0967  -36.1668 H   0  0  0  0  0  0  0  0  0  0  0  0
  -19.4542   -3.9304  -33.4642 H   0  0  0  0  0  0  0  0  0  0  0  0
  -24.3378   -5.3942  -25.3485 H   0  0  0  0  0  0  0  0  0  0  0  0
  -19.5258   -6.6176  -38.6679 H   0  0  0  0  0  0  0  0  0  0  0  0
  -19.2728   -3.0491  -35.8243 H   0  0  0  0  0  0  0  0  0  0  0  0
  -18.2942   -6.8463  -30.5934 H   0  0  0  0  0  0  0  0  0  0  0  0
  -19.9666   -7.3046  -30.3243 H   0  0  0  0  0  0  0  0  0  0  0  0
  -21.8464   -5.6832  -31.3941 H   0  0  0  0  0  0  0  0  0  0  0  0
  -21.2653   -4.3000  -32.3037 H   0  0  0  0  0  0  0  0  0  0  0  0
  -19.1222   -6.2151  -28.2943 H   0  0  0  0  0  0  0  0  0  0  0  0
  -18.5016   -4.8592  -29.2412 H   0  0  0  0  0  0  0  0  0  0  0  0
  -20.3293   -3.2619  -30.3269 H   0  0  0  0  0  0  0  0  0  0  0  0
  -22.0148   -3.6672  -29.9851 H   0  0  0  0  0  0  0  0  0  0  0  0
  -18.9305   -4.8513  -31.8468 H   0  0  0  0  0  0  0  0  0  0  0  0
  -24.8410   -6.0550  -20.9899 H   0  0  0  0  0  0  0  0  0  0  0  0
  -24.0744   -6.7122  -22.4717 H   0  0  0  0  0  0  0  0  0  0  0  0
  -23.1083   -5.7332  -21.3211 H   0  0  0  0  0  0  0  0  0  0  0  0
  -19.2752   -2.3379  -26.6058 H   0  0  0  0  0  0  0  0  0  0  0  0
  -19.0072   -3.2532  -28.0817 H   0  0  0  0  0  0  0  0  0  0  0  0
  -19.3532   -4.5111  -37.5872 H   0  0  0  0  0  0  0  0  0  0  0  0
  -19.8419   -7.4622  -32.7171 H   0  0  0  0  0  0  0  0  0  0  0  0
  1  8  1  0  0  0  0
  1 13  2  0  0  0  0
  2  5  1  0  0  0  0
  2 14  2  0  0  0  0
  3  6  2  0  0  0  0
  3 14  1  0  0  0  0
  4  7  2  0  0  0  0
  4 16  1  0  0  0  0
  5 19  2  0  0  0  0
  6 19  1  0  0  0  0
  7 20  1  0  0  0  0
  8 21  2  0  0  0  0
  9 12  1  0  0  0  0
  9 18  2  0  0  0  0
 10 15  1  0  0  0  0
 10 20  2  0  0  0  0
 11 17  2  0  0  0  0
 11 21  1  0  0  0  0
 12 32  2  0  0  0  0
 13 17  1  0  0  0  0
 13 18  1  0  0  0  0
 14 29  1  0  0  0  0
 15 16  2  0  0  0  0
 15 30  1  0  0  0  0
 16 31  1  0  0  0  0
 17 32  1  0  0  0  0
 18 34  1  0  0  0  0
 19 37  1  0  0  0  0
 20 38  1  0  0  0  0
 21 39  1  0  0  0  0
 22 30  2  0  0  0  0
 22 31  1  0  0  0  0
 22 33  1  0  0  0  0
 23 25  1  0  0  0  0
 23 27  1  0  0  0  0
 24 26  1  0  0  0  0
 24 27  1  0  0  0  0
 25 33  1  0  0  0  0
 26 33  1  0  0  0  0
 27 34  1  0  0  0  0
 28 38  1  0  0  0  0
 29 31  1  0  0  0  0
 35 38  2  0  0  0  0
 36 38  2  0  0  0  0
  1 40  1  0  0  0  0
  2 41  1  0  0  0  0
  3 42  1  0  0  0  0
  4 43  1  0  0  0  0
  5 44  1  0  0  0  0
  6 45  1  0  0  0  0
  7 46  1  0  0  0  0
  8 47  1  0  0  0  0
  9 48  1  0  0  0  0
 10 49  1  0  0  0  0
 11 50  1  0  0  0  0
 12 51  1  0  0  0  0
 23 52  1  0  0  0  0
 23 53  1  0  0  0  0
 24 54  1  0  0  0  0
 24 55  1  0  0  0  0
 25 56  1  0  0  0  0
 25 57  1  0  0  0  0
 26 58  1  0  0  0  0
 26 59  1  0  0  0  0
 27 60  1  0  0  0  0
 28 61  1  0  0  0  0
 28 62  1  0  0  0  0
 28 63  1  0  0  0  0
 29 64  1  0  0  0  0
 29 65  1  0  0  0  0
 32 66  1  0  0  0  0
 34 67  1  0  0  0  0
M  CHG  1  32   1
M  END
> <SMILES>
CS(=O)(=O)c1ccc2n(c(nc2c1)N1CCC(CC1)Nc1ccnc2cc(ccc12)Cl)Cc1ccc(cc1)F

> <FORMATTED_ID>
H3D-014798

> <MOLFORMULA>
C29H27ClFN5O2S

> <Exact Mass>
563.16

> <XLogP>
6.64

> <TPSA_NOPS>
88.5

> <s_m_source_file>
ligprep_h3d.sdf

> <i_m_source_file_index>
2997

> <i_lp_mmshare_version>
55123

> <i_f3d_flags>
0

> <s_epik_input>
W2NIXTFbY0hdYyhGKVtjSF1bY0hdYzFbQ0gyXW4yYyhuYyhjMjMpW2NIXWMoUyg9TykoPU8pW0NIM10pW2NIXVtjSF0zKU40W0NIMl1bQ0gyXVtDSF0oW0NIMl1bQ0gyXTQpW05IXWMoW2NIXVtjSF1uNSljKGM1NilbY0hdW2NIXWMoQ2wpW2NIXTY=

> <s_epik_cmdline>
J2VwaWtfcHl0aG9uJywgJy1waHQnLCAnMC41JywgJy1waCcsICc3LjUnLCAnLXRuJywgJzgnLCAnLW1hJywgJzUwMCcsICctaW1hZScsICc8aW5maWxlLm1hZT4nLCAnLW9tYWUnLCAnPG91dGZpbGUubWFlPic=

> <r_lp_tautomer_probability>
1

> <r_epik_Ionization_Penalty>
0.0787238

> <r_epik_Ionization_Penalty_Charging>
0.0608706

> <r_epik_Ionization_Penalty_Neutral>
0.0178532

> <r_epik_State_Penalty>
-0

> <r_epik_Charging_Adjusted_Penalty>
0.0608706

> <i_epik_Tot_Q>
1

> <i_epik_Tot_abs_Q>
1

> <s_lp_Force_Field>
S-OPLS

> <r_lp_Energy>
44.9449

> <b_lp_Chiralities_Consistent>
1

> <s_lp_Variant>
ligprep_h3d.sdf:2997-1

> <ROCS_ShapeQuery>
_7L13

> <ROCS_TanimotoCombo>
0.688 

> <ROCS_ShapeTanimoto>
0.633 

> <ROCS_ColorTanimoto>
0.055 

> <ROCS_RefTversky>
0.802 

> <ROCS_RefColorTversky>
0.120 

> <ROCS_RefTverskyCombo>
0.922 

> <ROCS_FitTversky>
0.750 

> <ROCS_FitColorTversky>
0.092 

> <ROCS_FitTverskyCombo>
0.842 

> <ROCS_ColorScore>
-1.096

> <ROCS_Overlap>
1337.533

> <ROCS_Rank>
196                 

$$$$
ligprep_h3d.sdf:1351_223
  -OEChem-08212117123D

 77 81  0     1  0  0  0  0  0999 V2000
  -16.9569   -5.8297  -25.6714 C   0  0  0  0  0  0  0  0  0  0  0  0
  -23.0912   -4.0669  -28.1255 C   0  0  0  0  0  0  0  0  0  0  0  0
  -20.8198   -4.2112  -24.6484 C   0  0  0  0  0  0  0  0  0  0  0  0
  -16.7945   -4.4395  -25.8223 C   0  0  0  0  0  0  0  0  0  0  0  0
  -20.9730   -4.4331  -27.0510 C   0  0  0  0  0  0  0  0  0  0  0  0
  -22.5165   -4.3305  -29.3713 C   0  0  0  0  0  0  0  0  0  0  0  0
  -20.3947   -4.6983  -28.3039 C   0  0  0  0  0  0  0  0  0  0  0  0
  -22.3430   -4.1116  -26.9523 C   0  0  0  0  0  0  0  0  0  0  0  0
  -20.2193   -4.4780  -25.8704 C   0  0  0  0  0  0  0  0  0  0  0  0
  -21.1666   -4.6467  -29.4610 C   0  0  0  0  0  0  0  0  0  0  0  0
  -22.1658   -3.9060  -24.6520 C   0  0  0  0  0  0  0  0  0  0  0  0
  -18.3174   -6.0184  -25.6712 C   0  0  0  0  0  0  0  0  0  0  0  0
  -22.8559   -3.6171  -23.4066 C   0  0  0  0  0  0  0  0  0  0  0  0
  -20.5374   -5.5970  -34.3319 C   0  0  0  0  0  0  0  0  0  0  0  0
  -19.4572   -6.4698  -32.2435 C   0  0  0  0  0  0  0  0  0  0  0  0
  -19.5070   -3.9941  -32.7212 C   0  0  0  0  0  0  0  0  0  0  0  0
  -20.3711   -7.3716  -37.5503 C   0  0  0  0  0  0  0  0  0  0  0  0
  -20.5842   -6.2828  -31.2256 C   0  0  0  0  0  0  0  0  0  0  0  0
  -20.6503   -3.8421  -31.7183 C   0  0  0  0  0  0  0  0  0  0  0  0
  -21.1955   -6.7253  -36.4451 C   0  0  0  0  0  0  0  0  0  0  0  0
  -18.9616   -7.1109  -35.6333 C   0  0  0  0  0  0  0  0  0  0  0  0
  -19.4317   -5.3941  -33.3272 C   0  0  0  0  0  0  0  0  0  0  0  0
  -19.2527   -8.0685  -36.7826 C   0  0  1  0  0  0  0  0  0  0  0  0
  -23.3814   -4.2657  -30.5885 C   0  0  0  0  0  0  0  0  0  0  0  0
  -18.9458   -5.0477  -28.4887 C   0  0  0  0  0  0  0  0  0  0  0  0
  -19.1150   -7.2543  -25.5471 C   0  0  0  0  0  0  0  0  0  0  0  0
  -26.0637   -4.8859  -20.2131 C   0  0  0  0  0  0  0  0  0  0  0  0
  -25.0435   -3.6979  -22.1824 C   0  0  0  0  0  0  0  0  0  0  0  0
  -25.6128   -5.0153  -21.6619 C   0  0  2  0  0  0  0  0  0  0  0  0
  -17.9588   -3.7910  -25.9118 N   0  0  0  0  0  0  0  0  0  0  0  0
  -22.9285   -3.8521  -25.7679 N   0  0  0  0  0  0  0  0  0  0  0  0
  -18.8658   -4.7781  -25.8168 N   0  0  0  0  0  0  0  0  0  0  0  0
  -20.5971   -4.9101  -30.7124 N   0  0  0  0  0  0  0  0  0  0  0  0
  -20.2319   -6.4254  -35.3968 N   0  0  0  0  0  0  0  0  0  0  0  0
  -24.2160   -3.9444  -23.3414 N   0  0  0  0  0  0  0  0  0  0  0  0
  -22.2527   -3.0829  -22.4581 O   0  0  0  0  0  0  0  0  0  0  0  0
  -21.6298   -5.0487  -34.1764 O   0  0  0  0  0  0  0  0  0  0  0  0
  -19.7183   -9.3046  -36.2518 O   0  0  0  0  0  0  0  0  0  0  0  0
  -26.7398   -5.3718  -22.4602 O   0  0  0  0  0  0  0  0  0  0  0  0
  -16.1928   -6.5873  -25.5765 H   0  0  0  0  0  0  0  0  0  0  0  0
  -24.1507   -3.8189  -28.0709 H   0  0  0  0  0  0  0  0  0  0  0  0
  -20.2582   -4.2382  -23.7188 H   0  0  0  0  0  0  0  0  0  0  0  0
  -15.8762   -3.8721  -25.8710 H   0  0  0  0  0  0  0  0  0  0  0  0
  -18.4982   -6.4486  -31.7103 H   0  0  0  0  0  0  0  0  0  0  0  0
  -19.5438   -7.4659  -32.6935 H   0  0  0  0  0  0  0  0  0  0  0  0
  -19.6212   -3.2423  -33.5108 H   0  0  0  0  0  0  0  0  0  0  0  0
  -18.5585   -3.7787  -32.2134 H   0  0  0  0  0  0  0  0  0  0  0  0
  -20.9746   -8.0621  -38.1467 H   0  0  0  0  0  0  0  0  0  0  0  0
  -19.9558   -6.5968  -38.2050 H   0  0  0  0  0  0  0  0  0  0  0  0
  -21.5510   -6.5159  -31.6901 H   0  0  0  0  0  0  0  0  0  0  0  0
  -20.4353   -6.9957  -30.4046 H   0  0  0  0  0  0  0  0  0  0  0  0
  -20.5581   -2.8617  -31.2336 H   0  0  0  0  0  0  0  0  0  0  0  0
  -21.6188   -3.8595  -32.2335 H   0  0  0  0  0  0  0  0  0  0  0  0
  -21.7136   -5.8183  -36.7707 H   0  0  0  0  0  0  0  0  0  0  0  0
  -21.9328   -7.4219  -36.0310 H   0  0  0  0  0  0  0  0  0  0  0  0
  -18.6272   -7.6117  -34.7205 H   0  0  0  0  0  0  0  0  0  0  0  0
  -18.2324   -6.3479  -35.9254 H   0  0  0  0  0  0  0  0  0  0  0  0
  -18.4980   -5.4801  -33.8948 H   0  0  0  0  0  0  0  0  0  0  0  0
  -18.3761   -8.2626  -37.4032 H   0  0  0  0  0  0  0  0  0  0  0  0
  -23.3751   -3.2517  -31.0040 H   0  0  0  0  0  0  0  0  0  0  0  0
  -23.0318   -4.9626  -31.3595 H   0  0  0  0  0  0  0  0  0  0  0  0
  -24.4164   -4.5416  -30.3530 H   0  0  0  0  0  0  0  0  0  0  0  0
  -18.8143   -6.1314  -28.4280 H   0  0  0  0  0  0  0  0  0  0  0  0
  -18.5832   -4.6985  -29.4599 H   0  0  0  0  0  0  0  0  0  0  0  0
  -18.3306   -4.5704  -27.7201 H   0  0  0  0  0  0  0  0  0  0  0  0
  -19.3451   -7.4742  -24.4918 H   0  0  0  0  0  0  0  0  0  0  0  0
  -20.0722   -7.1854  -26.0916 H   0  0  0  0  0  0  0  0  0  0  0  0
  -18.5891   -8.1297  -25.9651 H   0  0  0  0  0  0  0  0  0  0  0  0
  -26.8072   -4.0915  -20.0972 H   0  0  0  0  0  0  0  0  0  0  0  0
  -26.4933   -5.8265  -19.8507 H   0  0  0  0  0  0  0  0  0  0  0  0
  -25.2102   -4.6599  -19.5648 H   0  0  0  0  0  0  0  0  0  0  0  0
  -25.8484   -3.0120  -22.4676 H   0  0  0  0  0  0  0  0  0  0  0  0
  -24.4327   -3.2105  -21.4154 H   0  0  0  0  0  0  0  0  0  0  0  0
  -24.8698   -5.8164  -21.7492 H   0  0  0  0  0  0  0  0  0  0  0  0
  -24.6749   -4.3202  -24.1647 H   0  0  0  0  0  0  0  0  0  0  0  0
  -18.9718   -9.7031  -35.7765 H   0  0  0  0  0  0  0  0  0  0  0  0
  -27.0646   -6.2176  -22.1153 H   0  0  0  0  0  0  0  0  0  0  0  0
  1  4  1  0  0  0  0
  1 12  2  0  0  0  0
  2  6  2  0  0  0  0
  2  8  1  0  0  0  0
  3  9  1  0  0  0  0
  3 11  2  0  0  0  0
  4 30  2  0  0  0  0
  5  7  1  0  0  0  0
  5  8  1  0  0  0  0
  5  9  2  0  0  0  0
  6 10  1  0  0  0  0
  6 24  1  0  0  0  0
  7 10  2  0  0  0  0
  7 25  1  0  0  0  0
  8 31  2  0  0  0  0
  9 32  1  0  0  0  0
 10 33  1  0  0  0  0
 11 13  1  0  0  0  0
 11 31  1  0  0  0  0
 12 26  1  0  0  0  0
 12 32  1  0  0  0  0
 13 35  1  0  0  0  0
 13 36  2  0  0  0  0
 14 22  1  0  0  0  0
 14 34  1  0  0  0  0
 14 37  2  0  0  0  0
 15 18  1  0  0  0  0
 15 22  1  0  0  0  0
 16 19  1  0  0  0  0
 16 22  1  0  0  0  0
 17 20  1  0  0  0  0
 17 23  1  0  0  0  0
 18 33  1  0  0  0  0
 19 33  1  0  0  0  0
 20 34  1  0  0  0  0
 21 23  1  0  0  0  0
 21 34  1  0  0  0  0
 23 38  1  0  0  0  0
 27 29  1  0  0  0  0
 28 29  1  0  0  0  0
 28 35  1  0  0  0  0
 29 39  1  0  0  0  0
 30 32  1  0  0  0  0
  1 40  1  0  0  0  0
  2 41  1  0  0  0  0
  3 42  1  0  0  0  0
  4 43  1  0  0  0  0
 15 44  1  0  0  0  0
 15 45  1  0  0  0  0
 16 46  1  0  0  0  0
 16 47  1  0  0  0  0
 17 48  1  0  0  0  0
 17 49  1  0  0  0  0
 18 50  1  0  0  0  0
 18 51  1  0  0  0  0
 19 52  1  0  0  0  0
 19 53  1  0  0  0  0
 20 54  1  0  0  0  0
 20 55  1  0  0  0  0
 21 56  1  0  0  0  0
 21 57  1  0  0  0  0
 22 58  1  0  0  0  0
 23 59  1  0  0  0  0
 24 60  1  0  0  0  0
 24 61  1  0  0  0  0
 24 62  1  0  0  0  0
 25 63  1  0  0  0  0
 25 64  1  0  0  0  0
 25 65  1  0  0  0  0
 26 66  1  0  0  0  0
 26 67  1  0  0  0  0
 26 68  1  0  0  0  0
 27 69  1  0  0  0  0
 27 70  1  0  0  0  0
 27 71  1  0  0  0  0
 28 72  1  0  0  0  0
 28 73  1  0  0  0  0
 29 74  1  0  0  0  0
 35 75  1  0  0  0  0
 38 76  1  0  0  0  0
 39 77  1  0  0  0  0
M  END
> <SMILES>
C[C@@H](O)CNC(=O)c1cc(c2c(c(c(cc2n1)C)N1CCC(CC1)C(=O)N1CC[C@H](O)C1)C)-n1nccc1C

> <FORMATTED_ID>
H3D-009168

> <MOLFORMULA>
C29H38N6O4

> <Exact Mass>
534.3

> <XLogP>
1.85

> <TPSA_NOPS>
123.8

> <s_m_source_file>
ligprep_h3d.sdf

> <i_m_source_file_index>
1351

> <i_lp_mmshare_version>
55123

> <i_f3d_flags>
0

> <s_epik_input>
W0NIM11jMVtjSF1bY0hdbm4xLWMyW2NIXWMoQyg9TylbTkhdW0NIMl1bQ0BASF0oW0NIM10pW09IXSluYyhjMjMpW2NIXWMoW0NIM10pYyhjM1tDSDNdKU40W0NIMl1bQ0gyXVtDSF0oW0NIMl1bQ0gyXTQpQyg9TylONVtDSDJdW0NIMl1bQ0BIXShbT0hdKVtDSDJdNQ==

> <s_epik_cmdline>
J2VwaWtfcHl0aG9uJywgJy1waHQnLCAnMC41JywgJy1waCcsICc3LjUnLCAnLXRuJywgJzgnLCAnLW1hJywgJzUwMCcsICctaW1hZScsICc8aW5maWxlLm1hZT4nLCAnLW9tYWUnLCAnPG91dGZpbGUubWFlPic=

> <r_lp_tautomer_probability>
1

> <r_epik_Ionization_Penalty>
4.82761e-05

> <r_epik_Ionization_Penalty_Charging>
0

> <r_epik_Ionization_Penalty_Neutral>
4.82761e-05

> <r_epik_State_Penalty>
-0

> <r_epik_Charging_Adjusted_Penalty>
0

> <i_epik_Tot_Q>
0

> <i_epik_Tot_abs_Q>
0

> <s_lp_Force_Field>
S-OPLS

> <r_lp_Energy>
73.6245

> <b_lp_Chiralities_Consistent>
1

> <s_lp_Variant>
ligprep_h3d.sdf:1351-1

> <ROCS_ShapeQuery>
_7L13

> <ROCS_TanimotoCombo>
0.745 

> <ROCS_ShapeTanimoto>
0.632 

> <ROCS_ColorTanimoto>
0.114 

> <ROCS_RefTversky>
0.802 

> <ROCS_RefColorTversky>
0.254 

> <ROCS_RefTverskyCombo>
1.056 

> <ROCS_FitTversky>
0.748 

> <ROCS_FitColorTversky>
0.171 

> <ROCS_FitTverskyCombo>
0.919 

> <ROCS_ColorScore>
-2.348

> <ROCS_Overlap>
1337.524

> <ROCS_Rank>
197                 

$$$$
ligprep_h3d.sdf:5344_1029
  -OEChem-08212117123D

 71 76  0     0  0  0  0  0  0999 V2000
  -18.8286   -6.9575  -35.4447 C   0  0  0  0  0  0  0  0  0  0  0  0
  -19.9249   -7.7107  -35.0247 C   0  0  0  0  0  0  0  0  0  0  0  0
  -18.6185   -5.6809  -34.9232 C   0  0  0  0  0  0  0  0  0  0  0  0
  -20.8112   -7.1873  -34.0833 C   0  0  0  0  0  0  0  0  0  0  0  0
  -19.5047   -5.1576  -33.9817 C   0  0  0  0  0  0  0  0  0  0  0  0
  -23.0445   -3.8401  -28.8174 C   0  0  0  0  0  0  0  0  0  0  0  0
  -20.4150   -4.6908  -29.3600 C   0  0  0  0  0  0  0  0  0  0  0  0
  -14.5313   -5.7001  -25.6862 C   0  0  0  0  0  0  0  0  0  0  0  0
  -15.0479   -6.7581  -26.3963 C   0  0  0  0  0  0  0  0  0  0  0  0
  -22.1711   -4.1655  -27.7865 C   0  0  0  0  0  0  0  0  0  0  0  0
  -20.6011   -5.9108  -33.5617 C   0  0  0  0  0  0  0  0  0  0  0  0
  -20.8616   -4.5875  -28.0476 C   0  0  0  0  0  0  0  0  0  0  0  0
  -22.5919   -3.9358  -30.1327 C   0  0  0  0  0  0  0  0  0  0  0  0
  -21.2854   -4.3597  -30.4023 C   0  0  0  0  0  0  0  0  0  0  0  0
  -16.5842   -5.2042  -26.0150 C   0  0  0  0  0  0  0  0  0  0  0  0
  -17.9001   -4.6633  -26.1079 C   0  0  0  0  0  0  0  0  0  0  0  0
  -18.5892   -6.6411  -27.3539 C   0  0  0  0  0  0  0  0  0  0  0  0
  -17.3526   -7.1574  -27.2715 C   0  0  0  0  0  0  0  0  0  0  0  0
  -18.8840   -5.3375  -26.7487 C   0  0  0  0  0  0  0  0  0  0  0  0
  -23.3757   -2.9005  -24.3051 C   0  0  0  0  0  0  0  0  0  0  0  0
  -23.7728   -5.3961  -24.4682 C   0  0  0  0  0  0  0  0  0  0  0  0
  -23.0252   -2.8538  -25.7933 C   0  0  0  0  0  0  0  0  0  0  0  0
  -23.3813   -5.3629  -25.9484 C   0  0  0  0  0  0  0  0  0  0  0  0
  -20.9955   -4.4231  -25.7499 C   0  0  0  0  0  0  0  0  0  0  0  0
  -24.3342   -4.0516  -24.0158 C   0  0  0  0  0  0  0  0  0  0  0  0
  -22.4403   -4.1878  -26.2999 C   0  0  0  0  0  0  0  0  0  0  0  0
  -25.1338   -2.8067  -22.0130 C   0  0  0  0  0  0  0  0  0  0  0  0
  -25.4699   -5.2693  -22.1640 C   0  0  0  0  0  0  0  0  0  0  0  0
  -23.4395   -2.2634  -31.5958 C   0  0  0  0  0  0  0  0  0  0  0  0
  -21.5541   -5.3471  -32.5491 C   0  0  0  0  0  0  0  0  0  0  0  0
  -15.4854   -4.7424  -25.4534 N   0  0  0  0  0  0  0  0  0  0  0  0
  -16.3650   -6.4413  -26.6077 N   0  0  0  0  0  0  0  0  0  0  0  0
  -20.1499   -4.8671  -26.8649 N   0  0  0  0  0  0  0  0  0  0  0  0
  -24.5923   -4.1064  -22.5522 N   0  3  0  0  0  0  0  0  0  0  0  0
  -23.4377   -3.6190  -31.1536 O   0  0  0  0  0  0  0  0  0  0  0  0
  -20.8470   -4.4559  -31.6901 O   0  0  0  0  0  0  0  0  0  0  0  0
  -18.1379   -7.3657  -36.1768 H   0  0  0  0  0  0  0  0  0  0  0  0
  -20.0881   -8.7051  -35.4299 H   0  0  0  0  0  0  0  0  0  0  0  0
  -17.7644   -5.0947  -35.2491 H   0  0  0  0  0  0  0  0  0  0  0  0
  -21.6628   -7.7813  -33.7620 H   0  0  0  0  0  0  0  0  0  0  0  0
  -19.3331   -4.1620  -33.5810 H   0  0  0  0  0  0  0  0  0  0  0  0
  -24.0625   -3.5277  -28.6073 H   0  0  0  0  0  0  0  0  0  0  0  0
  -19.4051   -5.0168  -29.5890 H   0  0  0  0  0  0  0  0  0  0  0  0
  -13.5183   -5.5801  -25.3307 H   0  0  0  0  0  0  0  0  0  0  0  0
  -14.6079   -7.6773  -26.7579 H   0  0  0  0  0  0  0  0  0  0  0  0
  -18.0921   -3.6973  -25.6510 H   0  0  0  0  0  0  0  0  0  0  0  0
  -19.3794   -7.1790  -27.8666 H   0  0  0  0  0  0  0  0  0  0  0  0
  -17.0859   -8.1149  -27.7021 H   0  0  0  0  0  0  0  0  0  0  0  0
  -22.4571   -3.0078  -23.7149 H   0  0  0  0  0  0  0  0  0  0  0  0
  -23.8329   -1.9469  -24.0145 H   0  0  0  0  0  0  0  0  0  0  0  0
  -24.5181   -6.1859  -24.3136 H   0  0  0  0  0  0  0  0  0  0  0  0
  -22.8992   -5.6668  -23.8632 H   0  0  0  0  0  0  0  0  0  0  0  0
  -23.9369   -2.6058  -26.3526 H   0  0  0  0  0  0  0  0  0  0  0  0
  -22.3252   -2.0287  -25.9778 H   0  0  0  0  0  0  0  0  0  0  0  0
  -22.9221   -6.3223  -26.2208 H   0  0  0  0  0  0  0  0  0  0  0  0
  -24.3020   -5.2887  -26.5433 H   0  0  0  0  0  0  0  0  0  0  0  0
  -20.5733   -3.4912  -25.3506 H   0  0  0  0  0  0  0  0  0  0  0  0
  -20.9753   -5.1582  -24.9378 H   0  0  0  0  0  0  0  0  0  0  0  0
  -25.3058   -3.8665  -24.4883 H   0  0  0  0  0  0  0  0  0  0  0  0
  -26.0945   -2.6191  -22.4960 H   0  0  0  0  0  0  0  0  0  0  0  0
  -25.2518   -2.9162  -20.9333 H   0  0  0  0  0  0  0  0  0  0  0  0
  -24.4147   -2.0206  -22.2515 H   0  0  0  0  0  0  0  0  0  0  0  0
  -26.4378   -5.1341  -22.6502 H   0  0  0  0  0  0  0  0  0  0  0  0
  -24.9830   -6.1844  -22.5065 H   0  0  0  0  0  0  0  0  0  0  0  0
  -25.5724   -5.2623  -21.0772 H   0  0  0  0  0  0  0  0  0  0  0  0
  -24.1565   -2.1466  -32.4120 H   0  0  0  0  0  0  0  0  0  0  0  0
  -22.4375   -1.9884  -31.9346 H   0  0  0  0  0  0  0  0  0  0  0  0
  -23.7303   -1.6184  -30.7633 H   0  0  0  0  0  0  0  0  0  0  0  0
  -22.3679   -4.8011  -33.0385 H   0  0  0  0  0  0  0  0  0  0  0  0
  -21.9995   -6.1474  -31.9483 H   0  0  0  0  0  0  0  0  0  0  0  0
  -23.6859   -4.2591  -22.0801 H   0  0  0  0  0  0  0  0  0  0  0  0
  1  2  2  0  0  0  0
  1  3  1  0  0  0  0
  2  4  1  0  0  0  0
  3  5  2  0  0  0  0
  4 11  2  0  0  0  0
  5 11  1  0  0  0  0
  6 10  1  0  0  0  0
  6 13  2  0  0  0  0
  7 12  1  0  0  0  0
  7 14  2  0  0  0  0
  8  9  2  0  0  0  0
  8 31  1  0  0  0  0
  9 32  1  0  0  0  0
 10 12  2  0  0  0  0
 10 26  1  0  0  0  0
 11 30  1  0  0  0  0
 12 33  1  0  0  0  0
 13 14  1  0  0  0  0
 13 35  1  0  0  0  0
 14 36  1  0  0  0  0
 15 16  1  0  0  0  0
 15 31  2  0  0  0  0
 15 32  1  0  0  0  0
 16 19  2  0  0  0  0
 17 18  2  0  0  0  0
 17 19  1  0  0  0  0
 18 32  1  0  0  0  0
 19 33  1  0  0  0  0
 20 22  1  0  0  0  0
 20 25  1  0  0  0  0
 21 23  1  0  0  0  0
 21 25  1  0  0  0  0
 22 26  1  0  0  0  0
 23 26  1  0  0  0  0
 24 26  1  0  0  0  0
 24 33  1  0  0  0  0
 25 34  1  0  0  0  0
 27 34  1  0  0  0  0
 28 34  1  0  0  0  0
 29 35  1  0  0  0  0
 30 36  1  0  0  0  0
  1 37  1  0  0  0  0
  2 38  1  0  0  0  0
  3 39  1  0  0  0  0
  4 40  1  0  0  0  0
  5 41  1  0  0  0  0
  6 42  1  0  0  0  0
  7 43  1  0  0  0  0
  8 44  1  0  0  0  0
  9 45  1  0  0  0  0
 16 46  1  0  0  0  0
 17 47  1  0  0  0  0
 18 48  1  0  0  0  0
 20 49  1  0  0  0  0
 20 50  1  0  0  0  0
 21 51  1  0  0  0  0
 21 52  1  0  0  0  0
 22 53  1  0  0  0  0
 22 54  1  0  0  0  0
 23 55  1  0  0  0  0
 23 56  1  0  0  0  0
 24 57  1  0  0  0  0
 24 58  1  0  0  0  0
 25 59  1  0  0  0  0
 27 60  1  0  0  0  0
 27 61  1  0  0  0  0
 27 62  1  0  0  0  0
 28 63  1  0  0  0  0
 28 64  1  0  0  0  0
 28 65  1  0  0  0  0
 29 66  1  0  0  0  0
 29 67  1  0  0  0  0
 29 68  1  0  0  0  0
 30 69  1  0  0  0  0
 30 70  1  0  0  0  0
 34 71  1  0  0  0  0
M  CHG  1  34   1
M  END
> <SMILES>
COc1cc2c(cc1OCc1ccccc1)N(CC12CCC(CC1)N(C)C)c1ccn2ccnc2c1

> <FORMATTED_ID>
H3D-014975

> <MOLFORMULA>
C30H34N4O2

> <Exact Mass>
482.27

> <XLogP>
7.06

> <TPSA_NOPS>
42.2

> <s_m_source_file>
ligprep_h3d.sdf

> <i_m_source_file_index>
5344

> <i_lp_mmshare_version>
55123

> <i_f3d_flags>
0

> <s_epik_input>
W2NIXTFbY0hdW2NIXVtjSF1bY0hdYzFbQ0gyXU9jKGMoW2NIXTIpT1tDSDNdKVtjSF1jKGMyW0NAXTM0W0NIMl1bQ0gyXVtDQEhdKFtDSDJdW0NIMl00KU4oW0NIM10pW0NIM10pTihbQ0gyXTMpYyhbY0hdW2NIXTUpW2NIXWMobjU2KW5bY0hdW2NIXTY=

> <s_epik_cmdline>
J2VwaWtfcHl0aG9uJywgJy1waHQnLCAnMC41JywgJy1waCcsICc3LjUnLCAnLXRuJywgJzgnLCAnLW1hJywgJzUwMCcsICctaW1hZScsICc8aW5maWxlLm1hZT4nLCAnLW9tYWUnLCAnPG91dGZpbGUubWFlPic=

> <r_lp_tautomer_probability>
1

> <r_epik_Ionization_Penalty>
0.499476

> <r_epik_Ionization_Penalty_Charging>
0.499476

> <r_epik_Ionization_Penalty_Neutral>
3.65386e-09

> <r_epik_State_Penalty>
0.501635

> <r_epik_Charging_Adjusted_Penalty>
1.00111

> <i_epik_Tot_Q>
1

> <i_epik_Tot_abs_Q>
1

> <s_lp_Force_Field>
S-OPLS

> <r_lp_Energy>
85.7415

> <b_lp_Chiralities_Consistent>
1

> <s_lp_Variant>
ligprep_h3d.sdf:5344-2

> <ROCS_ShapeQuery>
_7L13

> <ROCS_TanimotoCombo>
0.780 

> <ROCS_ShapeTanimoto>
0.667 

> <ROCS_ColorTanimoto>
0.113 

> <ROCS_RefTversky>
0.802 

> <ROCS_RefColorTversky>
0.223 

> <ROCS_RefTverskyCombo>
1.025 

> <ROCS_FitTversky>
0.798 

> <ROCS_FitColorTversky>
0.186 

> <ROCS_FitTverskyCombo>
0.984 

> <ROCS_ColorScore>
-2.033

> <ROCS_Overlap>
1331.898

> <ROCS_Rank>
198                 

$$$$
ligprep_h3d.sdf:5348_861
  -OEChem-08212117123D

 65 69  0     0  0  0  0  0  0999 V2000
  -19.5964   -7.6251  -33.9509 C   0  0  0  0  0  0  0  0  0  0  0  0
  -19.4106   -5.2479  -34.3403 C   0  0  0  0  0  0  0  0  0  0  0  0
  -19.6134   -7.8492  -35.3275 C   0  0  0  0  0  0  0  0  0  0  0  0
  -19.4276   -5.4720  -35.7169 C   0  0  0  0  0  0  0  0  0  0  0  0
  -18.0640   -6.2396  -27.0476 C   0  0  0  0  0  0  0  0  0  0  0  0
  -18.1862   -4.7228  -25.1851 C   0  0  0  0  0  0  0  0  0  0  0  0
  -22.6475   -4.1404  -29.2031 C   0  0  0  0  0  0  0  0  0  0  0  0
  -19.9191   -4.8240  -29.3282 C   0  0  0  0  0  0  0  0  0  0  0  0
  -16.8427   -6.6657  -26.5511 C   0  0  0  0  0  0  0  0  0  0  0  0
  -16.9595   -5.2169  -24.7718 C   0  0  0  0  0  0  0  0  0  0  0  0
  -21.8968   -4.3090  -28.0457 C   0  0  0  0  0  0  0  0  0  0  0  0
  -19.4951   -6.3244  -33.4573 C   0  0  0  0  0  0  0  0  0  0  0  0
  -18.7422   -5.2493  -26.3458 C   0  0  0  0  0  0  0  0  0  0  0  0
  -20.5416   -4.6666  -28.0960 C   0  0  0  0  0  0  0  0  0  0  0  0
  -22.0218   -4.3132  -30.4361 C   0  0  0  0  0  0  0  0  0  0  0  0
  -20.6649   -4.6487  -30.4981 C   0  0  0  0  0  0  0  0  0  0  0  0
  -19.5290   -6.7727  -36.2105 C   0  0  0  0  0  0  0  0  0  0  0  0
  -23.1440   -2.9079  -26.3307 C   0  0  0  0  0  0  0  0  0  0  0  0
  -23.1855   -5.4323  -26.2176 C   0  0  0  0  0  0  0  0  0  0  0  0
  -20.9639   -4.1786  -25.8891 C   0  0  0  0  0  0  0  0  0  0  0  0
  -23.6618   -2.8470  -24.8996 C   0  0  0  0  0  0  0  0  0  0  0  0
  -23.7493   -5.3526  -24.8025 C   0  0  0  0  0  0  0  0  0  0  0  0
  -22.3499   -4.1956  -26.6105 C   0  0  0  0  0  0  0  0  0  0  0  0
  -22.7854   -2.8448  -32.1439 C   0  0  0  0  0  0  0  0  0  0  0  0
  -19.4759   -6.0826  -31.9765 C   0  0  0  0  0  0  0  0  0  0  0  0
  -25.1730   -3.9887  -23.2794 C   0  0  0  0  0  0  0  0  0  0  0  0
  -26.3780   -4.9084  -23.2601 C   0  0  0  0  0  0  0  0  0  0  0  0
  -16.2709   -6.1782  -25.4272 N   0  0  0  0  0  0  0  0  0  0  0  0
  -19.9780   -4.7842  -26.8053 N   0  0  0  0  0  0  0  0  0  0  0  0
  -24.5127   -4.0637  -24.6288 N   0  3  0  0  0  0  0  0  0  0  0  0
  -27.0278   -4.8150  -21.9993 O   0  0  0  0  0  0  0  0  0  0  0  0
  -22.7456   -4.1539  -31.5799 O   0  0  0  0  0  0  0  0  0  0  0  0
  -20.0516   -4.8068  -31.7059 O   0  0  0  0  0  0  0  0  0  0  0  0
  -19.5425   -6.9881  -37.5325 F   0  0  0  0  0  0  0  0  0  0  0  0
  -19.6634   -8.4701  -33.2708 H   0  0  0  0  0  0  0  0  0  0  0  0
  -19.3311   -4.2310  -33.9648 H   0  0  0  0  0  0  0  0  0  0  0  0
  -19.6916   -8.8617  -35.7120 H   0  0  0  0  0  0  0  0  0  0  0  0
  -19.3623   -4.6342  -36.4047 H   0  0  0  0  0  0  0  0  0  0  0  0
  -18.4703   -6.6713  -27.9562 H   0  0  0  0  0  0  0  0  0  0  0  0
  -18.6887   -3.9495  -24.6137 H   0  0  0  0  0  0  0  0  0  0  0  0
  -23.6985   -3.8744  -29.1524 H   0  0  0  0  0  0  0  0  0  0  0  0
  -18.8639   -5.0746  -29.3888 H   0  0  0  0  0  0  0  0  0  0  0  0
  -16.2742   -7.4362  -27.0615 H   0  0  0  0  0  0  0  0  0  0  0  0
  -16.4832   -4.8400  -23.8727 H   0  0  0  0  0  0  0  0  0  0  0  0
  -23.9996   -2.8438  -27.0121 H   0  0  0  0  0  0  0  0  0  0  0  0
  -22.5306   -2.0225  -26.5252 H   0  0  0  0  0  0  0  0  0  0  0  0
  -22.5848   -6.3495  -26.3170 H   0  0  0  0  0  0  0  0  0  0  0  0
  -24.0259   -5.5591  -26.9180 H   0  0  0  0  0  0  0  0  0  0  0  0
  -20.6528   -3.1682  -25.6022 H   0  0  0  0  0  0  0  0  0  0  0  0
  -20.9998   -4.7816  -24.9708 H   0  0  0  0  0  0  0  0  0  0  0  0
  -22.8561   -2.8344  -24.1625 H   0  0  0  0  0  0  0  0  0  0  0  0
  -24.2959   -1.9679  -24.7605 H   0  0  0  0  0  0  0  0  0  0  0  0
  -24.4520   -6.1768  -24.6258 H   0  0  0  0  0  0  0  0  0  0  0  0
  -22.9618   -5.3832  -24.0380 H   0  0  0  0  0  0  0  0  0  0  0  0
  -23.3948   -2.8564  -33.0509 H   0  0  0  0  0  0  0  0  0  0  0  0
  -21.7695   -2.5173  -32.3789 H   0  0  0  0  0  0  0  0  0  0  0  0
  -23.2287   -2.1586  -31.4185 H   0  0  0  0  0  0  0  0  0  0  0  0
  -20.0476   -6.8520  -31.4465 H   0  0  0  0  0  0  0  0  0  0  0  0
  -18.4499   -6.1022  -31.5937 H   0  0  0  0  0  0  0  0  0  0  0  0
  -24.4157   -4.2863  -22.5487 H   0  0  0  0  0  0  0  0  0  0  0  0
  -25.4587   -2.9445  -23.1275 H   0  0  0  0  0  0  0  0  0  0  0  0
  -27.0917   -4.6020  -24.0312 H   0  0  0  0  0  0  0  0  0  0  0  0
  -26.0941   -5.9508  -23.4378 H   0  0  0  0  0  0  0  0  0  0  0  0
  -25.2727   -4.0633  -25.3231 H   0  0  0  0  0  0  0  0  0  0  0  0
  -27.7890   -5.4168  -22.0314 H   0  0  0  0  0  0  0  0  0  0  0  0
  1  3  1  0  0  0  0
  1 12  2  0  0  0  0
  2  4  2  0  0  0  0
  2 12  1  0  0  0  0
  3 17  2  0  0  0  0
  4 17  1  0  0  0  0
  5  9  1  0  0  0  0
  5 13  2  0  0  0  0
  6 10  2  0  0  0  0
  6 13  1  0  0  0  0
  7 11  1  0  0  0  0
  7 15  2  0  0  0  0
  8 14  1  0  0  0  0
  8 16  2  0  0  0  0
  9 28  2  0  0  0  0
 10 28  1  0  0  0  0
 11 14  2  0  0  0  0
 11 23  1  0  0  0  0
 12 25  1  0  0  0  0
 13 29  1  0  0  0  0
 14 29  1  0  0  0  0
 15 16  1  0  0  0  0
 15 32  1  0  0  0  0
 16 33  1  0  0  0  0
 17 34  1  0  0  0  0
 18 21  1  0  0  0  0
 18 23  1  0  0  0  0
 19 22  1  0  0  0  0
 19 23  1  0  0  0  0
 20 23  1  0  0  0  0
 20 29  1  0  0  0  0
 21 30  1  0  0  0  0
 22 30  1  0  0  0  0
 24 32  1  0  0  0  0
 25 33  1  0  0  0  0
 26 27  1  0  0  0  0
 26 30  1  0  0  0  0
 27 31  1  0  0  0  0
  1 35  1  0  0  0  0
  2 36  1  0  0  0  0
  3 37  1  0  0  0  0
  4 38  1  0  0  0  0
  5 39  1  0  0  0  0
  6 40  1  0  0  0  0
  7 41  1  0  0  0  0
  8 42  1  0  0  0  0
  9 43  1  0  0  0  0
 10 44  1  0  0  0  0
 18 45  1  0  0  0  0
 18 46  1  0  0  0  0
 19 47  1  0  0  0  0
 19 48  1  0  0  0  0
 20 49  1  0  0  0  0
 20 50  1  0  0  0  0
 21 51  1  0  0  0  0
 21 52  1  0  0  0  0
 22 53  1  0  0  0  0
 22 54  1  0  0  0  0
 24 55  1  0  0  0  0
 24 56  1  0  0  0  0
 24 57  1  0  0  0  0
 25 58  1  0  0  0  0
 25 59  1  0  0  0  0
 26 60  1  0  0  0  0
 26 61  1  0  0  0  0
 27 62  1  0  0  0  0
 27 63  1  0  0  0  0
 30 64  1  0  0  0  0
 31 65  1  0  0  0  0
M  CHG  1  30   1
M  END
> <SMILES>
COc1cc2c(cc1OCc1ccc(cc1)F)N(CC12CCN(CCO)CC1)c1ccncc1

> <FORMATTED_ID>
H3D-014989

> <MOLFORMULA>
C27H30FN3O3

> <Exact Mass>
463.23

> <XLogP>
4.18

> <TPSA_NOPS>
58.1

> <s_m_source_file>
ligprep_h3d.sdf

> <i_m_source_file_index>
5348

> <i_lp_mmshare_version>
55123

> <i_f3d_flags>
0

> <s_epik_input>
W2NIXTFbY0hdYyhGKVtjSF1bY0hdYzFbQ0gyXU9jKGMoW2NIXTIpT1tDSDNdKVtjSF1jKE4oW0NIMl0zKWM0W2NIXVtjSF1uW2NIXVtjSF00KWMyQzM1W0NIMl1bQ0gyXU4oW0NIMl1bQ0gyXTUpW0NIMl1bQ0gyXVtPSF0=

> <s_epik_cmdline>
J2VwaWtfcHl0aG9uJywgJy1waHQnLCAnMC41JywgJy1waCcsICc3LjUnLCAnLXRuJywgJzgnLCAnLW1hJywgJzUwMCcsICctaW1hZScsICc8aW5maWxlLm1hZT4nLCAnLW9tYWUnLCAnPG91dGZpbGUubWFlPic=

> <r_lp_tautomer_probability>
1

> <r_epik_Ionization_Penalty>
0.147519

> <r_epik_Ionization_Penalty_Charging>
0.0243449

> <r_epik_Ionization_Penalty_Neutral>
0.123174

> <r_epik_State_Penalty>
-0

> <r_epik_Charging_Adjusted_Penalty>
0.0243449

> <i_epik_Tot_Q>
1

> <i_epik_Tot_abs_Q>
1

> <s_lp_Force_Field>
S-OPLS

> <r_lp_Energy>
71.3418

> <b_lp_Chiralities_Consistent>
1

> <s_lp_Variant>
ligprep_h3d.sdf:5348-1

> <ROCS_ShapeQuery>
_7L13

> <ROCS_TanimotoCombo>
0.799 

> <ROCS_ShapeTanimoto>
0.704 

> <ROCS_ColorTanimoto>
0.095 

> <ROCS_RefTversky>
0.802 

> <ROCS_RefColorTversky>
0.199 

> <ROCS_RefTverskyCombo>
1.001 

> <ROCS_FitTversky>
0.853 

> <ROCS_FitColorTversky>
0.153 

> <ROCS_FitTverskyCombo>
1.006 

> <ROCS_ColorScore>
-1.819

> <ROCS_Overlap>
1327.013

> <ROCS_Rank>
199                 

$$$$
ligprep_h3d.sdf:1244_1180
  -OEChem-08212117123D

 60 65  0     1  0  0  0  0  0999 V2000
  -20.9694   -5.1506  -29.4947 C   0  0  0  0  0  0  0  0  0  0  0  0
  -19.3973   -7.8008  -35.2866 C   0  0  0  0  0  0  0  0  0  0  0  0
  -19.1911   -6.9486  -36.3346 C   0  0  0  0  0  0  0  0  0  0  0  0
  -21.7354   -4.3881  -30.3790 C   0  0  0  0  0  0  0  0  0  0  0  0
  -21.0873   -4.9043  -28.1056 C   0  0  0  0  0  0  0  0  0  0  0  0
  -21.9806   -3.9427  -27.5766 C   0  0  0  0  0  0  0  0  0  0  0  0
  -22.5783   -3.4303  -29.8595 C   0  0  0  0  0  0  0  0  0  0  0  0
  -22.7304   -3.1729  -28.4968 C   0  0  0  0  0  0  0  0  0  0  0  0
  -21.9250   -4.2830  -31.7695 C   0  0  0  0  0  0  0  0  0  0  0  0
  -20.3340   -5.8593  -34.7829 C   0  0  0  0  0  0  0  0  0  0  0  0
  -18.9004   -3.8067  -26.2274 C   0  0  0  0  0  0  0  0  0  0  0  0
  -19.2287   -6.0144  -24.9947 C   0  0  0  0  0  0  0  0  0  0  0  0
  -17.0503   -5.1428  -25.8115 C   0  0  0  0  0  0  0  0  0  0  0  0
  -20.2366   -5.7290  -27.1772 C   0  0  0  0  0  0  0  0  0  0  0  0
  -23.0594   -2.8028  -25.6480 C   0  0  0  0  0  0  0  0  0  0  0  0
  -21.2015   -4.4580  -25.2287 C   0  0  2  0  0  0  0  0  0  0  0  0
  -23.4312   -3.1186  -24.1963 C   0  0  1  0  0  0  0  0  0  0  0  0
  -21.0525   -3.5179  -23.9965 C   0  0  2  0  0  0  0  0  0  0  0  0
  -19.8725   -4.9595  -25.8835 C   0  0  2  0  0  0  0  0  0  0  0  0
  -24.4085   -4.2869  -24.0811 C   0  0  0  0  0  0  0  0  0  0  0  0
  -20.0924   -3.9786  -22.9071 C   0  0  0  0  0  0  0  0  0  0  0  0
  -20.5377   -7.6285  -33.0614 C   0  0  0  0  0  0  0  0  0  0  0  0
  -21.0738   -4.7683  -34.0642 C   0  0  0  0  0  0  0  0  0  0  0  0
  -22.8115   -3.3356  -32.0900 N   0  0  0  0  0  0  0  0  0  0  0  0
  -17.6357   -4.1488  -26.4806 N   0  5  0  0  0  0  0  0  0  0  0  0
  -20.1064   -7.1004  -34.3407 N   0  0  0  0  0  0  0  0  0  0  0  0
  -19.7814   -5.7549  -35.9958 N   0  3  0  0  0  0  0  0  0  0  0  0
  -17.8491   -5.9927  -25.0486 N   0  0  0  0  0  0  0  0  0  0  0  0
  -22.0938   -3.7637  -26.1957 N   0  0  3  0  0  0  0  0  0  0  0  0
  -21.2573   -5.0734  -32.6490 N   0  0  0  0  0  0  0  0  0  0  0  0
  -19.3157   -2.6568  -26.3691 O   0  0  0  0  0  0  0  0  0  0  0  0
  -19.8602   -6.8523  -24.3547 O   0  0  0  0  0  0  0  0  0  0  0  0
  -15.8353   -5.3542  -25.8537 O   0  0  0  0  0  0  0  0  0  0  0  0
  -23.2223   -2.7955  -30.8769 O   0  0  0  0  0  0  0  0  0  0  0  0
  -22.3198   -3.3724  -23.3419 O   0  0  0  0  0  0  0  0  0  0  0  0
  -23.5029   -2.1416  -28.1349 F   0  0  0  0  0  0  0  0  0  0  0  0
  -20.2887   -5.9116  -29.8655 H   0  0  0  0  0  0  0  0  0  0  0  0
  -19.1356   -8.8197  -35.0754 H   0  0  0  0  0  0  0  0  0  0  0  0
  -18.7056   -7.0090  -37.2878 H   0  0  0  0  0  0  0  0  0  0  0  0
  -20.7943   -6.6456  -26.9412 H   0  0  0  0  0  0  0  0  0  0  0  0
  -19.3230   -6.0467  -27.6968 H   0  0  0  0  0  0  0  0  0  0  0  0
  -23.9687   -2.8521  -26.2819 H   0  0  0  0  0  0  0  0  0  0  0  0
  -22.7532   -1.7459  -25.6909 H   0  0  0  0  0  0  0  0  0  0  0  0
  -21.7724   -5.3398  -24.8958 H   0  0  0  0  0  0  0  0  0  0  0  0
  -23.9852   -2.2152  -23.7627 H   0  0  0  0  0  0  0  0  0  0  0  0
  -20.7264   -2.5088  -24.3069 H   0  0  0  0  0  0  0  0  0  0  0  0
  -23.9528   -5.1949  -24.4765 H   0  0  0  0  0  0  0  0  0  0  0  0
  -25.3155   -4.0717  -24.6462 H   0  0  0  0  0  0  0  0  0  0  0  0
  -24.6731   -4.4502  -23.0362 H   0  0  0  0  0  0  0  0  0  0  0  0
  -20.3697   -4.9749  -22.5625 H   0  0  0  0  0  0  0  0  0  0  0  0
  -20.1281   -3.2899  -22.0630 H   0  0  0  0  0  0  0  0  0  0  0  0
  -19.0744   -4.0094  -23.2958 H   0  0  0  0  0  0  0  0  0  0  0  0
  -19.7474   -7.4328  -32.3320 H   0  0  0  0  0  0  0  0  0  0  0  0
  -21.4669   -7.1374  -32.7594 H   0  0  0  0  0  0  0  0  0  0  0  0
  -20.7150   -8.7035  -33.1555 H   0  0  0  0  0  0  0  0  0  0  0  0
  -20.5298   -3.8202  -34.1370 H   0  0  0  0  0  0  0  0  0  0  0  0
  -22.0642   -4.6096  -34.5036 H   0  0  0  0  0  0  0  0  0  0  0  0
  -19.7955   -4.9213  -36.5771 H   0  0  0  0  0  0  0  0  0  0  0  0
  -17.3633   -6.6703  -24.4687 H   0  0  0  0  0  0  0  0  0  0  0  0
  -20.8424   -5.9553  -32.3239 H   0  0  0  0  0  0  0  0  0  0  0  0
  1  4  2  0  0  0  0
  1  5  1  0  0  0  0
  2  3  2  0  0  0  0
  2 26  1  0  0  0  0
  3 27  1  0  0  0  0
  4  7  1  0  0  0  0
  4  9  1  0  0  0  0
  5  6  2  0  0  0  0
  5 14  1  0  0  0  0
  6  8  1  0  0  0  0
  6 29  1  0  0  0  0
  7  8  2  0  0  0  0
  7 34  1  0  0  0  0
  8 36  1  0  0  0  0
  9 24  2  0  0  0  0
  9 30  1  0  0  0  0
 10 23  1  0  0  0  0
 10 26  1  0  0  0  0
 10 27  2  0  0  0  0
 11 19  1  0  0  0  0
 11 25  1  0  0  0  0
 11 31  2  0  0  0  0
 12 19  1  0  0  0  0
 12 28  1  0  0  0  0
 12 32  2  0  0  0  0
 13 25  1  0  0  0  0
 13 28  1  0  0  0  0
 13 33  2  0  0  0  0
 14 19  1  0  0  0  0
 15 17  1  0  0  0  0
 15 29  1  0  0  0  0
 16 18  1  0  0  0  0
 16 19  1  0  0  0  0
 16 29  1  0  0  0  0
 17 20  1  0  0  0  0
 17 35  1  0  0  0  0
 18 21  1  0  0  0  0
 18 35  1  0  0  0  0
 22 26  1  0  0  0  0
 23 30  1  0  0  0  0
 24 34  1  0  0  0  0
  1 37  1  0  0  0  0
  2 38  1  0  0  0  0
  3 39  1  0  0  0  0
 14 40  1  0  0  0  0
 14 41  1  0  0  0  0
 15 42  1  0  0  0  0
 15 43  1  0  0  0  0
 16 44  1  0  0  0  0
 17 45  1  0  0  0  0
 18 46  1  0  0  0  0
 20 47  1  0  0  0  0
 20 48  1  0  0  0  0
 20 49  1  0  0  0  0
 21 50  1  0  0  0  0
 21 51  1  0  0  0  0
 21 52  1  0  0  0  0
 22 53  1  0  0  0  0
 22 54  1  0  0  0  0
 22 55  1  0  0  0  0
 23 56  1  0  0  0  0
 23 57  1  0  0  0  0
 27 58  1  0  0  0  0
 28 59  1  0  0  0  0
 30 60  1  0  0  0  0
M  CHG  2  25  -1  27   1
M  END
> <SMILES>
CC1CN2C(C(C)O1)C1(Cc3cc4c(noc4c(c32)F)NCc2nccn2C)C(=O)NC(=O)NC1=O

> <FORMATTED_ID>
H3D-008487

> <MOLFORMULA>
C23H24FN7O5

> <Exact Mass>
497.18

> <XLogP>
1.18

> <TPSA_NOPS>
143.9

> <s_m_source_file>
ligprep_h3d.sdf

> <i_m_source_file_index>
1244

> <i_lp_mmshare_version>
55123

> <i_f3d_flags>
0

> <s_epik_input>
Tz1DMVtOSF1DKD1PKVtOSF1DKD1PKUMxMltDQEBIXTNOKFtDSDJdW0NAQEhdKFtDSDNdKU9bQ0BIXTNbQ0gzXSljNGMoW0NIMl0yKVtjSF1jNWMoYzRGKW9uYzVbTkhdW0NIMl1jNm5bY0hdW2NIXW42W0NIM10=

> <s_epik_cmdline>
J2VwaWtfcHl0aG9uJywgJy1waHQnLCAnMC41JywgJy1waCcsICc3LjUnLCAnLXRuJywgJzgnLCAnLW1hJywgJzUwMCcsICctaW1hZScsICc8aW5maWxlLm1hZT4nLCAnLW9tYWUnLCAnPG91dGZpbGUubWFlPic=

> <r_lp_tautomer_probability>
1

> <r_epik_Ionization_Penalty>
0.525584

> <r_epik_Ionization_Penalty_Charging>
0.455373

> <r_epik_Ionization_Penalty_Neutral>
0.0702108

> <r_epik_State_Penalty>
0.520013

> <r_epik_Charging_Adjusted_Penalty>
0.975386

> <i_epik_Tot_Q>
0

> <i_epik_Tot_abs_Q>
2

> <s_lp_Force_Field>
S-OPLS

> <r_lp_Energy>
51.1795

> <b_lp_Chiralities_Consistent>
1

> <s_lp_Variant>
ligprep_h3d.sdf:1244-2

> <ROCS_ShapeQuery>
_7L13

> <ROCS_TanimotoCombo>
0.771 

> <ROCS_ShapeTanimoto>
0.652 

> <ROCS_ColorTanimoto>
0.119 

> <ROCS_RefTversky>
0.802 

> <ROCS_RefColorTversky>
0.295 

> <ROCS_RefTverskyCombo>
1.097 

> <ROCS_FitTversky>
0.777 

> <ROCS_FitColorTversky>
0.167 

> <ROCS_FitTverskyCombo>
0.944 

> <ROCS_ColorScore>
-2.771

> <ROCS_Overlap>
1333.778

> <ROCS_Rank>
200                 

$$$$
ligprep_h3d.sdf:5327_1959
  -OEChem-08212117123D

 74 79  0     0  0  0  0  0  0999 V2000
  -22.8682   -6.8906  -32.2699 C   0  0  0  0  0  0  0  0  0  0  0  0
  -22.7545   -5.7508  -31.4739 C   0  0  0  0  0  0  0  0  0  0  0  0
  -21.8258   -7.2521  -33.1234 C   0  0  0  0  0  0  0  0  0  0  0  0
  -23.5853   -3.7701  -27.7292 C   0  0  0  0  0  0  0  0  0  0  0  0
  -20.9197   -4.3164  -28.4796 C   0  0  0  0  0  0  0  0  0  0  0  0
  -20.5560   -5.3340  -32.3850 C   0  0  0  0  0  0  0  0  0  0  0  0
  -15.1947   -5.9579  -26.0538 C   0  0  0  0  0  0  0  0  0  0  0  0
  -15.2364   -7.2322  -25.5517 C   0  0  0  0  0  0  0  0  0  0  0  0
  -22.6440   -4.1429  -26.7775 C   0  0  0  0  0  0  0  0  0  0  0  0
  -21.3275   -4.4115  -27.1570 C   0  0  0  0  0  0  0  0  0  0  0  0
  -21.5984   -4.9725  -31.5314 C   0  0  0  0  0  0  0  0  0  0  0  0
  -23.1890   -3.6704  -29.0643 C   0  0  0  0  0  0  0  0  0  0  0  0
  -21.8651   -3.9418  -29.4365 C   0  0  0  0  0  0  0  0  0  0  0  0
  -20.6697   -6.4738  -33.1810 C   0  0  0  0  0  0  0  0  0  0  0  0
  -17.3129   -6.4834  -25.6595 C   0  0  0  0  0  0  0  0  0  0  0  0
  -18.7861   -6.2833  -25.6057 C   0  0  0  0  0  0  0  0  0  0  0  0
  -18.2923   -4.0839  -26.5090 C   0  0  0  0  0  0  0  0  0  0  0  0
  -16.9624   -4.2913  -26.5474 C   0  0  0  0  0  0  0  0  0  0  0  0
  -19.2564   -5.0899  -26.0294 C   0  0  0  0  0  0  0  0  0  0  0  0
  -23.8696   -5.4232  -24.9824 C   0  0  0  0  0  0  0  0  0  0  0  0
  -23.2757   -2.9940  -24.6222 C   0  0  0  0  0  0  0  0  0  0  0  0
  -21.4088   -4.7323  -24.8383 C   0  0  0  0  0  0  0  0  0  0  0  0
  -24.1613   -5.5634  -23.4927 C   0  0  0  0  0  0  0  0  0  0  0  0
  -23.5715   -3.1517  -23.1351 C   0  0  0  0  0  0  0  0  0  0  0  0
  -22.8422   -4.3156  -25.2848 C   0  0  0  0  0  0  0  0  0  0  0  0
  -21.0392   -6.4385  -36.3759 C   0  0  0  0  0  0  0  0  0  0  0  0
  -19.4392   -4.6579  -35.8012 C   0  0  0  0  0  0  0  0  0  0  0  0
  -25.0285   -4.3422  -21.5008 C   0  0  0  0  0  0  0  0  0  0  0  0
  -24.2394   -1.9096  -30.2694 C   0  0  0  0  0  0  0  0  0  0  0  0
  -16.4983   -5.5119  -26.1121 N   0  0  0  0  0  0  0  0  0  0  0  0
  -16.5584   -7.5309  -25.3174 N   0  3  0  0  0  0  0  0  0  0  0  0
  -20.5658   -4.7650  -26.0383 N   0  0  0  0  0  0  0  0  0  0  0  0
  -19.7471   -6.1086  -35.7224 N   0  0  0  0  0  0  0  0  0  0  0  0
  -24.6070   -4.2318  -22.9405 N   0  3  0  0  0  0  0  0  0  0  0  0
  -18.1247   -6.3755  -33.7118 O   0  0  0  0  0  0  0  0  0  0  0  0
  -19.4419   -8.3669  -34.4755 O   0  0  0  0  0  0  0  0  0  0  0  0
  -21.4859   -3.8415  -30.7427 O   0  0  0  0  0  0  0  0  0  0  0  0
  -24.1056   -3.3042  -30.0047 O   0  0  0  0  0  0  0  0  0  0  0  0
  -19.3639   -6.9281  -34.2477 S   0  0  0  0  0  0  0  0  0  0  0  0
  -23.7685   -7.4963  -32.2253 H   0  0  0  0  0  0  0  0  0  0  0  0
  -23.5699   -5.4744  -30.8113 H   0  0  0  0  0  0  0  0  0  0  0  0
  -21.9243   -8.1425  -33.7384 H   0  0  0  0  0  0  0  0  0  0  0  0
  -24.6112   -3.5594  -27.4432 H   0  0  0  0  0  0  0  0  0  0  0  0
  -19.8985   -4.5228  -28.7810 H   0  0  0  0  0  0  0  0  0  0  0  0
  -19.6569   -4.7238  -32.4264 H   0  0  0  0  0  0  0  0  0  0  0  0
  -14.4102   -5.3017  -26.3803 H   0  0  0  0  0  0  0  0  0  0  0  0
  -14.5105   -7.9867  -25.3213 H   0  0  0  0  0  0  0  0  0  0  0  0
  -19.4225   -7.0786  -25.2379 H   0  0  0  0  0  0  0  0  0  0  0  0
  -18.6881   -3.1299  -26.8460 H   0  0  0  0  0  0  0  0  0  0  0  0
  -16.2463   -3.5594  -26.8975 H   0  0  0  0  0  0  0  0  0  0  0  0
  -23.5220   -6.3881  -25.3743 H   0  0  0  0  0  0  0  0  0  0  0  0
  -24.8141   -5.2129  -25.5022 H   0  0  0  0  0  0  0  0  0  0  0  0
  -24.1762   -2.6029  -25.1151 H   0  0  0  0  0  0  0  0  0  0  0  0
  -22.5043   -2.2246  -24.7569 H   0  0  0  0  0  0  0  0  0  0  0  0
  -20.9847   -4.0228  -24.1173 H   0  0  0  0  0  0  0  0  0  0  0  0
  -21.4017   -5.7210  -24.3636 H   0  0  0  0  0  0  0  0  0  0  0  0
  -24.9777   -6.2749  -23.3297 H   0  0  0  0  0  0  0  0  0  0  0  0
  -23.2836   -5.8841  -22.9223 H   0  0  0  0  0  0  0  0  0  0  0  0
  -22.6838   -3.4329  -22.5589 H   0  0  0  0  0  0  0  0  0  0  0  0
  -23.9868   -2.2235  -22.7287 H   0  0  0  0  0  0  0  0  0  0  0  0
  -21.2265   -7.5194  -36.2941 H   0  0  0  0  0  0  0  0  0  0  0  0
  -21.8518   -5.8871  -35.8804 H   0  0  0  0  0  0  0  0  0  0  0  0
  -20.9964   -6.1532  -37.4374 H   0  0  0  0  0  0  0  0  0  0  0  0
  -18.4770   -4.4594  -35.3065 H   0  0  0  0  0  0  0  0  0  0  0  0
  -19.3787   -4.3528  -36.8563 H   0  0  0  0  0  0  0  0  0  0  0  0
  -20.2341   -4.0867  -35.2993 H   0  0  0  0  0  0  0  0  0  0  0  0
  -24.1549   -4.6422  -20.9192 H   0  0  0  0  0  0  0  0  0  0  0  0
  -25.3943   -3.3638  -21.1837 H   0  0  0  0  0  0  0  0  0  0  0  0
  -25.8173   -5.0946  -21.4404 H   0  0  0  0  0  0  0  0  0  0  0  0
  -25.0015   -1.7551  -31.0371 H   0  0  0  0  0  0  0  0  0  0  0  0
  -23.2804   -1.5083  -30.6069 H   0  0  0  0  0  0  0  0  0  0  0  0
  -24.5421   -1.4009  -29.3511 H   0  0  0  0  0  0  0  0  0  0  0  0
  -16.9059   -8.4095  -24.9428 H   0  0  0  0  0  0  0  0  0  0  0  0
  -25.4453   -3.9487  -23.4665 H   0  0  0  0  0  0  0  0  0  0  0  0
  1  2  1  0  0  0  0
  1  3  2  0  0  0  0
  2 11  2  0  0  0  0
  3 14  1  0  0  0  0
  4  9  1  0  0  0  0
  4 12  2  0  0  0  0
  5 10  1  0  0  0  0
  5 13  2  0  0  0  0
  6 11  1  0  0  0  0
  6 14  2  0  0  0  0
  7  8  2  0  0  0  0
  7 30  1  0  0  0  0
  8 31  1  0  0  0  0
  9 10  2  0  0  0  0
  9 25  1  0  0  0  0
 10 32  1  0  0  0  0
 11 37  1  0  0  0  0
 12 13  1  0  0  0  0
 12 38  1  0  0  0  0
 13 37  1  0  0  0  0
 14 39  1  0  0  0  0
 15 16  1  0  0  0  0
 15 30  1  0  0  0  0
 15 31  2  0  0  0  0
 16 19  2  0  0  0  0
 17 18  2  0  0  0  0
 17 19  1  0  0  0  0
 18 30  1  0  0  0  0
 19 32  1  0  0  0  0
 20 23  1  0  0  0  0
 20 25  1  0  0  0  0
 21 24  1  0  0  0  0
 21 25  1  0  0  0  0
 22 25  1  0  0  0  0
 22 32  1  0  0  0  0
 23 34  1  0  0  0  0
 24 34  1  0  0  0  0
 26 33  1  0  0  0  0
 27 33  1  0  0  0  0
 28 34  1  0  0  0  0
 29 38  1  0  0  0  0
 33 39  1  0  0  0  0
 35 39  2  0  0  0  0
 36 39  2  0  0  0  0
  1 40  1  0  0  0  0
  2 41  1  0  0  0  0
  3 42  1  0  0  0  0
  4 43  1  0  0  0  0
  5 44  1  0  0  0  0
  6 45  1  0  0  0  0
  7 46  1  0  0  0  0
  8 47  1  0  0  0  0
 16 48  1  0  0  0  0
 17 49  1  0  0  0  0
 18 50  1  0  0  0  0
 20 51  1  0  0  0  0
 20 52  1  0  0  0  0
 21 53  1  0  0  0  0
 21 54  1  0  0  0  0
 22 55  1  0  0  0  0
 22 56  1  0  0  0  0
 23 57  1  0  0  0  0
 23 58  1  0  0  0  0
 24 59  1  0  0  0  0
 24 60  1  0  0  0  0
 26 61  1  0  0  0  0
 26 62  1  0  0  0  0
 26 63  1  0  0  0  0
 27 64  1  0  0  0  0
 27 65  1  0  0  0  0
 27 66  1  0  0  0  0
 28 67  1  0  0  0  0
 28 68  1  0  0  0  0
 28 69  1  0  0  0  0
 29 70  1  0  0  0  0
 29 71  1  0  0  0  0
 29 72  1  0  0  0  0
 31 73  1  0  0  0  0
 34 74  1  0  0  0  0
M  CHG  2  31   1  34   1
M  END
> <SMILES>
COc1cc2c(cc1Oc1cccc(c1)S(=O)(=O)N(C)C)N(CC12CCN(C)CC1)c1ccn2ccnc2c1

> <FORMATTED_ID>
H3D-014903

> <MOLFORMULA>
C29H33N5O4S

> <Exact Mass>
547.23

> <XLogP>
5.02

> <TPSA_NOPS>
88

> <s_m_source_file>
ligprep_h3d.sdf

> <i_m_source_file_index>
5327

> <i_lp_mmshare_version>
55123

> <i_f3d_flags>
0

> <s_epik_input>
W0NIMl0xW0NIMl1OKFtDSDNdKVtDSDJdW0NIMl1DMTJjM2MoTihbQ0gyXTIpYyhbY0hdW2NIXTQpW2NIXWMobjQ1KW5bY0hdW2NIXTUpW2NIXWMoYyhbY0hdMylPW0NIM10pT2M2W2NIXVtjSF1bY0hdYyhbY0hdNilTKD1PKSg9TylOKFtDSDNdKVtDSDNd

> <s_epik_cmdline>
J2VwaWtfcHl0aG9uJywgJy1waHQnLCAnMC41JywgJy1waCcsICc3LjUnLCAnLXRuJywgJzgnLCAnLW1hJywgJzUwMCcsICctaW1hZScsICc8aW5maWxlLm1hZT4nLCAnLW9tYWUnLCAnPG91dGZpbGUubWFlPic=

> <r_lp_tautomer_probability>
1

> <r_epik_Ionization_Penalty>
0.405137

> <r_epik_Ionization_Penalty_Charging>
0.00813204

> <r_epik_Ionization_Penalty_Neutral>
0.397005

> <r_epik_State_Penalty>
0.396099

> <r_epik_Charging_Adjusted_Penalty>
0.404231

> <i_epik_Tot_Q>
2

> <i_epik_Tot_abs_Q>
2

> <s_lp_Force_Field>
S-OPLS

> <r_lp_Energy>
88.1302

> <b_lp_Chiralities_Consistent>
1

> <s_lp_Variant>
ligprep_h3d.sdf:5327-1

> <ROCS_ShapeQuery>
_7L13

> <ROCS_TanimotoCombo>
0.718 

> <ROCS_ShapeTanimoto>
0.632 

> <ROCS_ColorTanimoto>
0.086 

> <ROCS_RefTversky>
0.801 

> <ROCS_RefColorTversky>
0.198 

> <ROCS_RefTverskyCombo>
0.999 

> <ROCS_FitTversky>
0.749 

> <ROCS_FitColorTversky>
0.133 

> <ROCS_FitTverskyCombo>
0.882 

> <ROCS_ColorScore>
-1.831

> <ROCS_Overlap>
1336.058

> <ROCS_Rank>
201                 

$$$$
ligprep_h3d.sdf:1376_853
  -OEChem-08212117123D

 71 75  0     1  0  0  0  0  0999 V2000
  -20.8186   -4.4627  -31.5223 C   0  0  0  0  0  0  0  0  0  0  0  0
  -21.1650   -6.8045  -31.0393 C   0  0  0  0  0  0  0  0  0  0  0  0
  -20.3701   -4.7928  -32.8011 C   0  0  0  0  0  0  0  0  0  0  0  0
  -20.7165   -7.1346  -32.3182 C   0  0  0  0  0  0  0  0  0  0  0  0
  -17.0363   -5.7453  -25.9114 C   0  0  0  0  0  0  0  0  0  0  0  0
  -23.4944   -4.5497  -27.8209 C   0  0  0  0  0  0  0  0  0  0  0  0
  -20.8722   -4.2745  -24.6087 C   0  0  0  0  0  0  0  0  0  0  0  0
  -16.9823   -4.3652  -26.1838 C   0  0  0  0  0  0  0  0  0  0  0  0
  -21.2571   -4.7022  -26.9569 C   0  0  0  0  0  0  0  0  0  0  0  0
  -21.2160   -5.4685  -30.6413 C   0  0  0  0  0  0  0  0  0  0  0  0
  -21.6834   -5.1246  -29.3087 C   0  0  0  0  0  0  0  0  0  0  0  0
  -20.3190   -6.1287  -33.1991 C   0  0  0  0  0  0  0  0  0  0  0  0
  -23.0349   -4.8812  -29.0980 C   0  0  0  0  0  0  0  0  0  0  0  0
  -20.7946   -5.0356  -28.2412 C   0  0  0  0  0  0  0  0  0  0  0  0
  -22.6279   -4.4539  -26.7355 C   0  0  0  0  0  0  0  0  0  0  0  0
  -20.3844   -4.6057  -25.8646 C   0  0  0  0  0  0  0  0  0  0  0  0
  -22.2287   -4.0495  -24.4900 C   0  0  0  0  0  0  0  0  0  0  0  0
  -18.3743   -6.0118  -25.7524 C   0  0  0  0  0  0  0  0  0  0  0  0
  -19.8465   -6.4765  -34.5466 C   0  0  0  0  0  0  0  0  0  0  0  0
  -22.8047   -3.7004  -23.2028 C   0  0  0  0  0  0  0  0  0  0  0  0
  -18.8429   -5.9967  -36.4400 C   0  0  0  0  0  0  0  0  0  0  0  0
  -19.3151   -7.4449  -36.4288 C   0  0  0  0  0  0  0  0  0  0  0  0
  -24.0324   -4.9619  -30.2097 C   0  0  0  0  0  0  0  0  0  0  0  0
  -19.3487   -5.3121  -28.5452 C   0  0  0  0  0  0  0  0  0  0  0  0
  -19.0717   -7.2773  -25.4508 C   0  0  0  0  0  0  0  0  0  0  0  0
  -18.1939   -8.4184  -36.7762 C   0  0  0  0  0  0  0  0  0  0  0  0
  -20.5195   -7.6603  -37.3500 C   0  0  0  0  0  0  0  0  0  0  0  0
  -26.6086   -2.5639  -23.0397 C   0  0  0  0  0  0  0  0  0  0  0  0
  -24.8446   -3.8080  -21.7473 C   0  0  0  0  0  0  0  0  0  0  0  0
  -26.3372   -3.6819  -22.0421 C   0  0  2  0  0  0  0  0  0  0  0  0
  -18.1900   -3.7948  -26.1979 N   0  0  0  0  0  0  0  0  0  0  0  0
  -23.1042   -4.1322  -25.5179 N   0  0  0  0  0  0  0  0  0  0  0  0
  -19.7511   -7.6724  -35.0373 N   0  0  0  0  0  0  0  0  0  0  0  0
  -19.0154   -4.8215  -25.9325 N   0  0  0  0  0  0  0  0  0  0  0  0
  -24.1261   -4.0999  -22.9669 N   0  0  0  0  0  0  0  0  0  0  0  0
  -22.1441   -3.0561  -22.3677 O   0  0  0  0  0  0  0  0  0  0  0  0
  -19.4830   -5.4179  -35.3097 O   0  0  0  0  0  0  0  0  0  0  0  0
  -26.7972   -4.9118  -22.5991 O   0  0  0  0  0  0  0  0  0  0  0  0
  -20.8527   -3.4167  -31.2268 H   0  0  0  0  0  0  0  0  0  0  0  0
  -21.4714   -7.5998  -30.3641 H   0  0  0  0  0  0  0  0  0  0  0  0
  -20.0628   -4.0010  -33.4796 H   0  0  0  0  0  0  0  0  0  0  0  0
  -20.6808   -8.1788  -32.6180 H   0  0  0  0  0  0  0  0  0  0  0  0
  -16.2181   -6.4471  -25.8410 H   0  0  0  0  0  0  0  0  0  0  0  0
  -24.5569   -4.3616  -27.6702 H   0  0  0  0  0  0  0  0  0  0  0  0
  -20.2175   -4.1930  -23.7454 H   0  0  0  0  0  0  0  0  0  0  0  0
  -16.1132   -3.7515  -26.3727 H   0  0  0  0  0  0  0  0  0  0  0  0
  -17.7601   -5.8955  -36.3055 H   0  0  0  0  0  0  0  0  0  0  0  0
  -19.1321   -5.4561  -37.3468 H   0  0  0  0  0  0  0  0  0  0  0  0
  -24.1358   -3.9857  -30.6957 H   0  0  0  0  0  0  0  0  0  0  0  0
  -23.7257   -5.6981  -30.9616 H   0  0  0  0  0  0  0  0  0  0  0  0
  -25.0144   -5.2744  -29.8360 H   0  0  0  0  0  0  0  0  0  0  0  0
  -19.1399   -6.3768  -28.4144 H   0  0  0  0  0  0  0  0  0  0  0  0
  -19.1075   -5.0241  -29.5722 H   0  0  0  0  0  0  0  0  0  0  0  0
  -18.6972   -4.7358  -27.8822 H   0  0  0  0  0  0  0  0  0  0  0  0
  -19.1787   -7.4226  -24.3634 H   0  0  0  0  0  0  0  0  0  0  0  0
  -20.0816   -7.3091  -25.8942 H   0  0  0  0  0  0  0  0  0  0  0  0
  -18.5341   -8.1523  -25.8547 H   0  0  0  0  0  0  0  0  0  0  0  0
  -18.5706   -9.4407  -36.7576 H   0  0  0  0  0  0  0  0  0  0  0  0
  -17.3841   -8.3255  -36.0532 H   0  0  0  0  0  0  0  0  0  0  0  0
  -17.8080   -8.2005  -37.7716 H   0  0  0  0  0  0  0  0  0  0  0  0
  -20.8248   -8.7032  -37.3136 H   0  0  0  0  0  0  0  0  0  0  0  0
  -20.2495   -7.3996  -38.3705 H   0  0  0  0  0  0  0  0  0  0  0  0
  -21.3449   -7.0319  -37.0241 H   0  0  0  0  0  0  0  0  0  0  0  0
  -26.0603   -2.7219  -23.9735 H   0  0  0  0  0  0  0  0  0  0  0  0
  -27.6781   -2.4921  -23.2668 H   0  0  0  0  0  0  0  0  0  0  0  0
  -26.3105   -1.5963  -22.6216 H   0  0  0  0  0  0  0  0  0  0  0  0
  -24.4515   -2.8769  -21.3249 H   0  0  0  0  0  0  0  0  0  0  0  0
  -24.6585   -4.6154  -21.0315 H   0  0  0  0  0  0  0  0  0  0  0  0
  -26.8975   -3.4989  -21.1180 H   0  0  0  0  0  0  0  0  0  0  0  0
  -24.6413   -4.5679  -23.7053 H   0  0  0  0  0  0  0  0  0  0  0  0
  -27.7475   -4.8036  -22.7574 H   0  0  0  0  0  0  0  0  0  0  0  0
  1  3  1  0  0  0  0
  1 10  2  0  0  0  0
  2  4  2  0  0  0  0
  2 10  1  0  0  0  0
  3 12  2  0  0  0  0
  4 12  1  0  0  0  0
  5  8  1  0  0  0  0
  5 18  2  0  0  0  0
  6 13  2  0  0  0  0
  6 15  1  0  0  0  0
  7 16  1  0  0  0  0
  7 17  2  0  0  0  0
  8 31  2  0  0  0  0
  9 14  1  0  0  0  0
  9 15  1  0  0  0  0
  9 16  2  0  0  0  0
 10 11  1  0  0  0  0
 11 13  1  0  0  0  0
 11 14  2  0  0  0  0
 12 19  1  0  0  0  0
 13 23  1  0  0  0  0
 14 24  1  0  0  0  0
 15 32  2  0  0  0  0
 16 34  1  0  0  0  0
 17 20  1  0  0  0  0
 17 32  1  0  0  0  0
 18 25  1  0  0  0  0
 18 34  1  0  0  0  0
 19 33  2  0  0  0  0
 19 37  1  0  0  0  0
 20 35  1  0  0  0  0
 20 36  2  0  0  0  0
 21 22  1  0  0  0  0
 21 37  1  0  0  0  0
 22 26  1  0  0  0  0
 22 27  1  0  0  0  0
 22 33  1  0  0  0  0
 28 30  1  0  0  0  0
 29 30  1  0  0  0  0
 29 35  1  0  0  0  0
 30 38  1  0  0  0  0
 31 34  1  0  0  0  0
  1 39  1  0  0  0  0
  2 40  1  0  0  0  0
  3 41  1  0  0  0  0
  4 42  1  0  0  0  0
  5 43  1  0  0  0  0
  6 44  1  0  0  0  0
  7 45  1  0  0  0  0
  8 46  1  0  0  0  0
 21 47  1  0  0  0  0
 21 48  1  0  0  0  0
 23 49  1  0  0  0  0
 23 50  1  0  0  0  0
 23 51  1  0  0  0  0
 24 52  1  0  0  0  0
 24 53  1  0  0  0  0
 24 54  1  0  0  0  0
 25 55  1  0  0  0  0
 25 56  1  0  0  0  0
 25 57  1  0  0  0  0
 26 58  1  0  0  0  0
 26 59  1  0  0  0  0
 26 60  1  0  0  0  0
 27 61  1  0  0  0  0
 27 62  1  0  0  0  0
 27 63  1  0  0  0  0
 28 64  1  0  0  0  0
 28 65  1  0  0  0  0
 28 66  1  0  0  0  0
 29 67  1  0  0  0  0
 29 68  1  0  0  0  0
 30 69  1  0  0  0  0
 35 70  1  0  0  0  0
 38 71  1  0  0  0  0
M  END
> <SMILES>
C[C@@H](O)CNC(=O)c1cc(c2c(c(c(cc2n1)C)-c1ccc(cc1)C1=NC(C)(C)CO1)C)-n1nccc1C

> <FORMATTED_ID>
H3D-009280

> <MOLFORMULA>
C30H33N5O3

> <Exact Mass>
511.26

> <XLogP>
4.33

> <TPSA_NOPS>
101.6

> <s_m_source_file>
ligprep_h3d.sdf

> <i_m_source_file_index>
1376

> <i_lp_mmshare_version>
55123

> <i_f3d_flags>
0

> <s_epik_input>
W0NIM11jMVtjSF1bY0hdbm4xLWMyW2NIXWMoQyg9TylbTkhdW0NIMl1bQ0BASF0oW0NIM10pW09IXSluYyhjMjMpW2NIXWMoW0NIM10pYyhjM1tDSDNdKS1jNFtjSF1bY0hdYyhbY0hdW2NIXTQpQyhPW0NIMl01KT1OQzUoW0NIM10pW0NIM10=

> <s_epik_cmdline>
J2VwaWtfcHl0aG9uJywgJy1waHQnLCAnMC41JywgJy1waCcsICc3LjUnLCAnLXRuJywgJzgnLCAnLW1hJywgJzUwMCcsICctaW1hZScsICc8aW5maWxlLm1hZT4nLCAnLW9tYWUnLCAnPG91dGZpbGUubWFlPic=

> <r_lp_tautomer_probability>
1

> <r_epik_Ionization_Penalty>
0.000809458

> <r_epik_Ionization_Penalty_Charging>
0

> <r_epik_Ionization_Penalty_Neutral>
0.000809458

> <r_epik_State_Penalty>
-0

> <r_epik_Charging_Adjusted_Penalty>
0

> <i_epik_Tot_Q>
0

> <i_epik_Tot_abs_Q>
0

> <s_epik_Chemistry_Notes>
This compound has an imine and may undergo hydrolysis.

> <s_lp_Force_Field>
S-OPLS

> <r_lp_Energy>
43.8475

> <b_lp_Chiralities_Consistent>
1

> <s_lp_Variant>
ligprep_h3d.sdf:1376-1

> <ROCS_ShapeQuery>
_7L13

> <ROCS_TanimotoCombo>
0.833 

> <ROCS_ShapeTanimoto>
0.637 

> <ROCS_ColorTanimoto>
0.196 

> <ROCS_RefTversky>
0.801 

> <ROCS_RefColorTversky>
0.392 

> <ROCS_RefTverskyCombo>
1.194 

> <ROCS_FitTversky>
0.756 

> <ROCS_FitColorTversky>
0.282 

> <ROCS_FitTverskyCombo>
1.038 

> <ROCS_ColorScore>
-3.610

> <ROCS_Overlap>
1335.109

> <ROCS_Rank>
202                 

$$$$
ligprep_h3d.sdf:5316_1885
  -OEChem-08212117123D

 73 78  0     0  0  0  0  0  0999 V2000
  -19.4523   -6.3031  -36.2598 C   0  0  0  0  0  0  0  0  0  0  0  0
  -20.4280   -6.8808  -35.4475 C   0  0  0  0  0  0  0  0  0  0  0  0
  -18.4460   -5.5212  -35.6925 C   0  0  0  0  0  0  0  0  0  0  0  0
  -20.3976   -6.6766  -34.0680 C   0  0  0  0  0  0  0  0  0  0  0  0
  -18.4156   -5.3170  -34.3130 C   0  0  0  0  0  0  0  0  0  0  0  0
  -22.7072   -4.3104  -29.1042 C   0  0  0  0  0  0  0  0  0  0  0  0
  -19.9032   -4.5401  -29.3314 C   0  0  0  0  0  0  0  0  0  0  0  0
  -14.5324   -4.8752  -25.8104 C   0  0  0  0  0  0  0  0  0  0  0  0
  -14.4970   -6.0488  -25.1039 C   0  0  0  0  0  0  0  0  0  0  0  0
  -21.9084   -4.3818  -27.9695 C   0  0  0  0  0  0  0  0  0  0  0  0
  -19.3914   -5.8947  -33.5007 C   0  0  0  0  0  0  0  0  0  0  0  0
  -20.5221   -4.4953  -28.0906 C   0  0  0  0  0  0  0  0  0  0  0  0
  -22.0979   -4.3544  -30.3598 C   0  0  0  0  0  0  0  0  0  0  0  0
  -20.7054   -4.4684  -30.4721 C   0  0  0  0  0  0  0  0  0  0  0  0
  -16.6011   -5.6599  -25.6572 C   0  0  0  0  0  0  0  0  0  0  0  0
  -18.0740   -5.6873  -25.8647 C   0  0  0  0  0  0  0  0  0  0  0  0
  -17.7170   -3.6012  -27.0555 C   0  0  0  0  0  0  0  0  0  0  0  0
  -16.3856   -3.6011  -26.8536 C   0  0  0  0  0  0  0  0  0  0  0  0
  -18.6123   -4.6610  -26.5587 C   0  0  0  0  0  0  0  0  0  0  0  0
  -23.2555   -5.5497  -26.1851 C   0  0  0  0  0  0  0  0  0  0  0  0
  -23.0534   -3.0313  -26.1724 C   0  0  0  0  0  0  0  0  0  0  0  0
  -20.9689   -4.4680  -25.7916 C   0  0  0  0  0  0  0  0  0  0  0  0
  -23.7849   -5.5054  -24.7561 C   0  0  0  0  0  0  0  0  0  0  0  0
  -23.5840   -3.0051  -24.7435 C   0  0  0  0  0  0  0  0  0  0  0  0
  -22.3428   -4.3540  -26.5177 C   0  0  0  0  0  0  0  0  0  0  0  0
  -23.1378   -2.9843  -32.0022 C   0  0  0  0  0  0  0  0  0  0  0  0
  -28.1041   -5.8035  -21.8176 C   0  0  0  0  0  0  0  0  0  0  0  0
  -19.3582   -5.6745  -32.0169 C   0  0  0  0  0  0  0  0  0  0  0  0
  -25.1401   -4.1463  -23.1665 C   0  0  0  0  0  0  0  0  0  0  0  0
  -26.4709   -4.8699  -23.2260 C   0  0  0  0  0  0  0  0  0  0  0  0
  -15.8519   -4.6532  -26.1444 N   0  0  0  0  0  0  0  0  0  0  0  0
  -15.7898   -6.5117  -25.0249 N   0  3  0  0  0  0  0  0  0  0  0  0
  -19.9304   -4.5505  -26.8243 N   0  0  0  0  0  0  0  0  0  0  0  0
  -24.4891   -4.1918  -24.5217 N   0  3  0  0  0  0  0  0  0  0  0  0
  -22.8739   -4.2839  -31.4786 O   0  0  0  0  0  0  0  0  0  0  0  0
  -20.1179   -4.5100  -31.7022 O   0  0  0  0  0  0  0  0  0  0  0  0
  -27.1081   -4.7996  -21.9573 O   0  0  0  0  0  0  0  0  0  0  0  0
  -19.4754   -6.4633  -37.3337 H   0  0  0  0  0  0  0  0  0  0  0  0
  -21.2110   -7.4905  -35.8889 H   0  0  0  0  0  0  0  0  0  0  0  0
  -17.6855   -5.0721  -36.3244 H   0  0  0  0  0  0  0  0  0  0  0  0
  -21.1621   -7.1305  -33.4430 H   0  0  0  0  0  0  0  0  0  0  0  0
  -17.6279   -4.7062  -33.8798 H   0  0  0  0  0  0  0  0  0  0  0  0
  -23.7860   -4.2220  -29.0196 H   0  0  0  0  0  0  0  0  0  0  0  0
  -18.8269   -4.6274  -29.4324 H   0  0  0  0  0  0  0  0  0  0  0  0
  -13.7941   -4.1616  -26.1240 H   0  0  0  0  0  0  0  0  0  0  0  0
  -13.7319   -6.6361  -24.6361 H   0  0  0  0  0  0  0  0  0  0  0  0
  -18.6571   -6.5071  -25.4638 H   0  0  0  0  0  0  0  0  0  0  0  0
  -18.1670   -2.7837  -27.6118 H   0  0  0  0  0  0  0  0  0  0  0  0
  -15.7196   -2.8279  -27.2139 H   0  0  0  0  0  0  0  0  0  0  0  0
  -22.7226   -6.4966  -26.3431 H   0  0  0  0  0  0  0  0  0  0  0  0
  -24.1127   -5.5718  -26.8716 H   0  0  0  0  0  0  0  0  0  0  0  0
  -23.8957   -2.8659  -26.8579 H   0  0  0  0  0  0  0  0  0  0  0  0
  -22.3763   -2.1801  -26.3215 H   0  0  0  0  0  0  0  0  0  0  0  0
  -20.7740   -3.5993  -25.1509 H   0  0  0  0  0  0  0  0  0  0  0  0
  -20.9180   -5.3594  -25.1546 H   0  0  0  0  0  0  0  0  0  0  0  0
  -24.5183   -6.3029  -24.5966 H   0  0  0  0  0  0  0  0  0  0  0  0
  -22.9875   -5.5940  -24.0111 H   0  0  0  0  0  0  0  0  0  0  0  0
  -22.7830   -3.0527  -23.9984 H   0  0  0  0  0  0  0  0  0  0  0  0
  -24.1808   -2.1025  -24.5752 H   0  0  0  0  0  0  0  0  0  0  0  0
  -23.7661   -3.0699  -32.8921 H   0  0  0  0  0  0  0  0  0  0  0  0
  -22.1944   -2.4938  -32.2549 H   0  0  0  0  0  0  0  0  0  0  0  0
  -23.6609   -2.3955  -31.2449 H   0  0  0  0  0  0  0  0  0  0  0  0
  -28.5715   -5.7196  -20.8334 H   0  0  0  0  0  0  0  0  0  0  0  0
  -27.6474   -6.7897  -21.9329 H   0  0  0  0  0  0  0  0  0  0  0  0
  -28.8621   -5.6625  -22.5917 H   0  0  0  0  0  0  0  0  0  0  0  0
  -19.7821   -6.5323  -31.4839 H   0  0  0  0  0  0  0  0  0  0  0  0
  -18.3289   -5.5369  -31.6682 H   0  0  0  0  0  0  0  0  0  0  0  0
  -24.4421   -4.6238  -22.4730 H   0  0  0  0  0  0  0  0  0  0  0  0
  -25.2650   -3.0901  -22.9137 H   0  0  0  0  0  0  0  0  0  0  0  0
  -27.1242   -4.3866  -23.9592 H   0  0  0  0  0  0  0  0  0  0  0  0
  -26.3474   -5.9216  -23.5044 H   0  0  0  0  0  0  0  0  0  0  0  0
  -16.0815   -7.3665  -24.5587 H   0  0  0  0  0  0  0  0  0  0  0  0
  -25.2510   -4.1270  -25.2110 H   0  0  0  0  0  0  0  0  0  0  0  0
  1  2  2  0  0  0  0
  1  3  1  0  0  0  0
  2  4  1  0  0  0  0
  3  5  2  0  0  0  0
  4 11  2  0  0  0  0
  5 11  1  0  0  0  0
  6 10  2  0  0  0  0
  6 13  1  0  0  0  0
  7 12  2  0  0  0  0
  7 14  1  0  0  0  0
  8  9  2  0  0  0  0
  8 31  1  0  0  0  0
  9 32  1  0  0  0  0
 10 12  1  0  0  0  0
 10 25  1  0  0  0  0
 11 28  1  0  0  0  0
 12 33  1  0  0  0  0
 13 14  2  0  0  0  0
 13 35  1  0  0  0  0
 14 36  1  0  0  0  0
 15 16  1  0  0  0  0
 15 31  1  0  0  0  0
 15 32  2  0  0  0  0
 16 19  2  0  0  0  0
 17 18  2  0  0  0  0
 17 19  1  0  0  0  0
 18 31  1  0  0  0  0
 19 33  1  0  0  0  0
 20 23  1  0  0  0  0
 20 25  1  0  0  0  0
 21 24  1  0  0  0  0
 21 25  1  0  0  0  0
 22 25  1  0  0  0  0
 22 33  1  0  0  0  0
 23 34  1  0  0  0  0
 24 34  1  0  0  0  0
 26 35  1  0  0  0  0
 27 37  1  0  0  0  0
 28 36  1  0  0  0  0
 29 30  1  0  0  0  0
 29 34  1  0  0  0  0
 30 37  1  0  0  0  0
  1 38  1  0  0  0  0
  2 39  1  0  0  0  0
  3 40  1  0  0  0  0
  4 41  1  0  0  0  0
  5 42  1  0  0  0  0
  6 43  1  0  0  0  0
  7 44  1  0  0  0  0
  8 45  1  0  0  0  0
  9 46  1  0  0  0  0
 16 47  1  0  0  0  0
 17 48  1  0  0  0  0
 18 49  1  0  0  0  0
 20 50  1  0  0  0  0
 20 51  1  0  0  0  0
 21 52  1  0  0  0  0
 21 53  1  0  0  0  0
 22 54  1  0  0  0  0
 22 55  1  0  0  0  0
 23 56  1  0  0  0  0
 23 57  1  0  0  0  0
 24 58  1  0  0  0  0
 24 59  1  0  0  0  0
 26 60  1  0  0  0  0
 26 61  1  0  0  0  0
 26 62  1  0  0  0  0
 27 63  1  0  0  0  0
 27 64  1  0  0  0  0
 27 65  1  0  0  0  0
 28 66  1  0  0  0  0
 28 67  1  0  0  0  0
 29 68  1  0  0  0  0
 29 69  1  0  0  0  0
 30 70  1  0  0  0  0
 30 71  1  0  0  0  0
 32 72  1  0  0  0  0
 34 73  1  0  0  0  0
M  CHG  2  32   1  34   1
M  END
> <SMILES>
COCCN1CCC2(CC1)CN(c1ccn3ccnc3c1)c1cc(c(cc12)OC)OCc1ccccc1

> <FORMATTED_ID>
H3D-014364

> <MOLFORMULA>
C30H34N4O3

> <Exact Mass>
498.26

> <XLogP>
5.96

> <TPSA_NOPS>
51.5

> <s_m_source_file>
ligprep_h3d.sdf

> <i_m_source_file_index>
5316

> <i_lp_mmshare_version>
55123

> <i_f3d_flags>
0

> <s_epik_input>
W0NIM11PW0NIMl1bQ0gyXU4oW0NIMl1bQ0gyXTEpW0NIMl1bQ0gyXUMxMmMzYyhOKFtDSDJdMiljKFtjSF1bY0hdNClbY0hdYyhuNDUpbltjSF1bY0hdNSlbY0hdYyhjKFtjSF0zKU9bQ0gzXSlPW0NIMl1jNltjSF1bY0hdW2NIXVtjSF1bY0hdNg==

> <s_epik_cmdline>
J2VwaWtfcHl0aG9uJywgJy1waHQnLCAnMC41JywgJy1waCcsICc3LjUnLCAnLXRuJywgJzgnLCAnLW1hJywgJzUwMCcsICctaW1hZScsICc8aW5maWxlLm1hZT4nLCAnLW9tYWUnLCAnPG91dGZpbGUubWFlPic=

> <r_lp_tautomer_probability>
1

> <r_epik_Ionization_Penalty>
0.453508

> <r_epik_Ionization_Penalty_Charging>
0.0562848

> <r_epik_Ionization_Penalty_Neutral>
0.397223

> <r_epik_State_Penalty>
0.420173

> <r_epik_Charging_Adjusted_Penalty>
0.476458

> <i_epik_Tot_Q>
2

> <i_epik_Tot_abs_Q>
2

> <s_lp_Force_Field>
S-OPLS

> <r_lp_Energy>
79.1459

> <b_lp_Chiralities_Consistent>
1

> <s_lp_Variant>
ligprep_h3d.sdf:5316-1

> <ROCS_ShapeQuery>
_7L13

> <ROCS_TanimotoCombo>
0.742 

> <ROCS_ShapeTanimoto>
0.654 

> <ROCS_ColorTanimoto>
0.088 

> <ROCS_RefTversky>
0.801 

> <ROCS_RefColorTversky>
0.194 

> <ROCS_RefTverskyCombo>
0.995 

> <ROCS_FitTversky>
0.780 

> <ROCS_FitColorTversky>
0.139 

> <ROCS_FitTverskyCombo>
0.920 

> <ROCS_ColorScore>
-1.789

> <ROCS_Overlap>
1331.923

> <ROCS_Rank>
203                 

$$$$
ligprep_h3d.sdf:5406_1808
  -OEChem-08212117123D

 77 83  0     1  0  0  0  0  0999 V2000
  -18.8027   -6.9715  -35.4480 C   0  0  0  0  0  0  0  0  0  0  0  0
  -19.9004   -7.7236  -35.0299 C   0  0  0  0  0  0  0  0  0  0  0  0
  -18.5933   -5.6943  -34.9276 C   0  0  0  0  0  0  0  0  0  0  0  0
  -20.7889   -7.1986  -34.0914 C   0  0  0  0  0  0  0  0  0  0  0  0
  -19.4817   -5.1693  -33.9892 C   0  0  0  0  0  0  0  0  0  0  0  0
  -23.0343   -3.8434  -28.8358 C   0  0  0  0  0  0  0  0  0  0  0  0
  -20.4038   -4.6960  -29.3705 C   0  0  0  0  0  0  0  0  0  0  0  0
  -15.0416   -6.9001  -26.4622 C   0  0  0  0  0  0  0  0  0  0  0  0
  -14.4438   -5.8897  -25.7554 C   0  0  0  0  0  0  0  0  0  0  0  0
  -22.1637   -4.1678  -27.8022 C   0  0  0  0  0  0  0  0  0  0  0  0
  -20.5795   -5.9214  -33.5710 C   0  0  0  0  0  0  0  0  0  0  0  0
  -20.8537   -4.5908  -28.0593 C   0  0  0  0  0  0  0  0  0  0  0  0
  -22.5784   -3.9410  -30.1498 C   0  0  0  0  0  0  0  0  0  0  0  0
  -21.2713   -4.3659  -30.4155 C   0  0  0  0  0  0  0  0  0  0  0  0
  -16.5579   -5.3292  -26.0729 C   0  0  0  0  0  0  0  0  0  0  0  0
  -17.8931   -4.6744  -26.1154 C   0  0  0  0  0  0  0  0  0  0  0  0
  -18.5706   -6.6493  -27.3556 C   0  0  0  0  0  0  0  0  0  0  0  0
  -17.3520   -7.2199  -27.3021 C   0  0  0  0  0  0  0  0  0  0  0  0
  -18.8798   -5.3400  -26.7543 C   0  0  0  0  0  0  0  0  0  0  0  0
  -25.9062   -5.2407  -20.7322 C   0  0  0  0  0  0  0  0  0  0  0  0
  -25.5677   -5.1970  -22.2006 C   0  0  0  0  0  0  0  0  0  0  0  0
  -23.3768   -2.8976  -24.3256 C   0  0  0  0  0  0  0  0  0  0  0  0
  -23.7746   -5.3933  -24.4864 C   0  0  0  0  0  0  0  0  0  0  0  0
  -23.0224   -2.8531  -25.8129 C   0  0  0  0  0  0  0  0  0  0  0  0
  -23.3793   -5.3622  -25.9657 C   0  0  0  0  0  0  0  0  0  0  0  0
  -25.0861   -2.8799  -20.5077 C   0  0  0  0  0  0  0  0  0  0  0  0
  -20.9935   -4.4233  -25.7623 C   0  0  0  0  0  0  0  0  0  0  0  0
  -25.0614   -2.7777  -22.0171 C   0  0  0  0  0  0  0  0  0  0  0  0
  -24.3366   -4.0479  -24.0373 C   0  0  0  0  0  0  0  0  0  0  0  0
  -22.4368   -4.1880  -26.3163 C   0  0  0  0  0  0  0  0  0  0  0  0
  -23.4214   -2.2702  -31.6172 C   0  0  0  0  0  0  0  0  0  0  0  0
  -21.5350   -5.3560  -32.5616 C   0  0  0  0  0  0  0  0  0  0  0  0
  -16.3568   -6.5295  -26.6482 N   0  0  0  0  0  0  0  0  0  0  0  0
  -15.4049   -4.9322  -25.5284 N   0  3  0  0  0  0  0  0  0  0  0  0
  -25.7486   -4.0736  -20.0215 N   0  0  0  0  0  0  0  0  0  0  0  0
  -20.1453   -4.8691  -26.8744 N   0  0  0  0  0  0  0  0  0  0  0  0
  -24.6012   -4.1012  -22.5593 N   0  3  2  0  0  0  0  0  0  0  0  0
  -26.3729   -6.2636  -20.2277 O   0  0  0  0  0  0  0  0  0  0  0  0
  -23.4213   -3.6252  -31.1733 O   0  0  0  0  0  0  0  0  0  0  0  0
  -20.8296   -4.4639  -31.7020 O   0  0  0  0  0  0  0  0  0  0  0  0
  -18.1103   -7.3809  -36.1777 H   0  0  0  0  0  0  0  0  0  0  0  0
  -20.0630   -8.7185  -35.4341 H   0  0  0  0  0  0  0  0  0  0  0  0
  -17.7382   -5.1089  -35.2521 H   0  0  0  0  0  0  0  0  0  0  0  0
  -21.6416   -7.7918  -33.7716 H   0  0  0  0  0  0  0  0  0  0  0  0
  -19.3107   -4.1733  -33.5893 H   0  0  0  0  0  0  0  0  0  0  0  0
  -24.0527   -3.5303  -28.6288 H   0  0  0  0  0  0  0  0  0  0  0  0
  -19.3935   -5.0227  -29.5964 H   0  0  0  0  0  0  0  0  0  0  0  0
  -14.7091   -7.8394  -26.8618 H   0  0  0  0  0  0  0  0  0  0  0  0
  -13.4602   -5.7038  -25.3720 H   0  0  0  0  0  0  0  0  0  0  0  0
  -18.0322   -3.7085  -25.6458 H   0  0  0  0  0  0  0  0  0  0  0  0
  -19.3760   -7.1706  -27.8653 H   0  0  0  0  0  0  0  0  0  0  0  0
  -17.1146   -8.1805  -27.7404 H   0  0  0  0  0  0  0  0  0  0  0  0
  -25.0979   -6.1407  -22.4890 H   0  0  0  0  0  0  0  0  0  0  0  0
  -26.4850   -5.0344  -22.7734 H   0  0  0  0  0  0  0  0  0  0  0  0
  -22.4598   -3.0046  -23.7329 H   0  0  0  0  0  0  0  0  0  0  0  0
  -23.8343   -1.9435  -24.0375 H   0  0  0  0  0  0  0  0  0  0  0  0
  -24.5207   -6.1825  -24.3328 H   0  0  0  0  0  0  0  0  0  0  0  0
  -22.9027   -5.6636  -23.8789 H   0  0  0  0  0  0  0  0  0  0  0  0
  -23.9326   -2.6054  -26.3749 H   0  0  0  0  0  0  0  0  0  0  0  0
  -22.3215   -2.0285  -25.9967 H   0  0  0  0  0  0  0  0  0  0  0  0
  -22.9198   -6.3222  -26.2356 H   0  0  0  0  0  0  0  0  0  0  0  0
  -24.2984   -5.2884  -26.5631 H   0  0  0  0  0  0  0  0  0  0  0  0
  -24.0663   -2.9012  -20.1074 H   0  0  0  0  0  0  0  0  0  0  0  0
  -25.5966   -2.0160  -20.0707 H   0  0  0  0  0  0  0  0  0  0  0  0
  -20.5720   -3.4911  -25.3631 H   0  0  0  0  0  0  0  0  0  0  0  0
  -20.9758   -5.1572  -24.9490 H   0  0  0  0  0  0  0  0  0  0  0  0
  -26.0498   -2.5659  -22.4357 H   0  0  0  0  0  0  0  0  0  0  0  0
  -24.3482   -2.0159  -22.3431 H   0  0  0  0  0  0  0  0  0  0  0  0
  -25.3068   -3.8630  -24.5126 H   0  0  0  0  0  0  0  0  0  0  0  0
  -24.1362   -2.1541  -32.4355 H   0  0  0  0  0  0  0  0  0  0  0  0
  -22.4184   -1.9961  -31.9538 H   0  0  0  0  0  0  0  0  0  0  0  0
  -23.7140   -1.6239  -30.7864 H   0  0  0  0  0  0  0  0  0  0  0  0
  -22.3472   -4.8102  -33.0538 H   0  0  0  0  0  0  0  0  0  0  0  0
  -21.9823   -6.1553  -31.9609 H   0  0  0  0  0  0  0  0  0  0  0  0
  -15.2602   -4.0605  -25.0263 H   0  0  0  0  0  0  0  0  0  0  0  0
  -26.1270   -4.0463  -19.0797 H   0  0  0  0  0  0  0  0  0  0  0  0
  -23.7044   -4.3244  -22.1033 H   0  0  0  0  0  0  0  0  0  0  0  0
  1  2  2  0  0  0  0
  1  3  1  0  0  0  0
  2  4  1  0  0  0  0
  3  5  2  0  0  0  0
  4 11  2  0  0  0  0
  5 11  1  0  0  0  0
  6 10  1  0  0  0  0
  6 13  2  0  0  0  0
  7 12  1  0  0  0  0
  7 14  2  0  0  0  0
  8  9  2  0  0  0  0
  8 33  1  0  0  0  0
  9 34  1  0  0  0  0
 10 12  2  0  0  0  0
 10 30  1  0  0  0  0
 11 32  1  0  0  0  0
 12 36  1  0  0  0  0
 13 14  1  0  0  0  0
 13 39  1  0  0  0  0
 14 40  1  0  0  0  0
 15 16  1  0  0  0  0
 15 33  1  0  0  0  0
 15 34  2  0  0  0  0
 16 19  2  0  0  0  0
 17 18  2  0  0  0  0
 17 19  1  0  0  0  0
 18 33  1  0  0  0  0
 19 36  1  0  0  0  0
 20 21  1  0  0  0  0
 20 35  1  0  0  0  0
 20 38  2  0  0  0  0
 21 37  1  0  0  0  0
 22 24  1  0  0  0  0
 22 29  1  0  0  0  0
 23 25  1  0  0  0  0
 23 29  1  0  0  0  0
 24 30  1  0  0  0  0
 25 30  1  0  0  0  0
 26 28  1  0  0  0  0
 26 35  1  0  0  0  0
 27 30  1  0  0  0  0
 27 36  1  0  0  0  0
 28 37  1  0  0  0  0
 29 37  1  0  0  0  0
 31 39  1  0  0  0  0
 32 40  1  0  0  0  0
  1 41  1  0  0  0  0
  2 42  1  0  0  0  0
  3 43  1  0  0  0  0
  4 44  1  0  0  0  0
  5 45  1  0  0  0  0
  6 46  1  0  0  0  0
  7 47  1  0  0  0  0
  8 48  1  0  0  0  0
  9 49  1  0  0  0  0
 16 50  1  0  0  0  0
 17 51  1  0  0  0  0
 18 52  1  0  0  0  0
 21 53  1  0  0  0  0
 21 54  1  0  0  0  0
 22 55  1  0  0  0  0
 22 56  1  0  0  0  0
 23 57  1  0  0  0  0
 23 58  1  0  0  0  0
 24 59  1  0  0  0  0
 24 60  1  0  0  0  0
 25 61  1  0  0  0  0
 25 62  1  0  0  0  0
 26 63  1  0  0  0  0
 26 64  1  0  0  0  0
 27 65  1  0  0  0  0
 27 66  1  0  0  0  0
 28 67  1  0  0  0  0
 28 68  1  0  0  0  0
 29 69  1  0  0  0  0
 31 70  1  0  0  0  0
 31 71  1  0  0  0  0
 31 72  1  0  0  0  0
 32 73  1  0  0  0  0
 32 74  1  0  0  0  0
 34 75  1  0  0  0  0
 35 76  1  0  0  0  0
 37 77  1  0  0  0  0
M  CHG  2  34   1  37   1
M  END
> <SMILES>
COc1cc2c(cc1OCc1ccccc1)N(CC12CCC(CC1)N1CCNC(=O)C1)c1ccn2ccnc2c1

> <FORMATTED_ID>
H3D-015183

> <MOLFORMULA>
C32H35N5O3

> <Exact Mass>
537.27

> <XLogP>
5.8

> <TPSA_NOPS>
71.3

> <s_m_source_file>
ligprep_h3d.sdf

> <i_m_source_file_index>
5406

> <i_lp_mmshare_version>
55123

> <i_f3d_flags>
0

> <s_epik_input>
W2NIXTFbY0hdW2NIXVtjSF1bY0hdYzFbQ0gyXU9jKGMoW2NIXTIpT1tDSDNdKVtjSF1jKE4oW0NIMl0zKWMoW2NIXVtjSF00KVtjSF1jKG40NSluW2NIXVtjSF01KWMyW0NAXTM2W0NIMl1bQ0gyXVtDQEhdKFtDSDJdW0NIMl02KU43W0NIMl1bQ0gyXVtOSF1DKD1PKVtDSDJdNw==

> <s_epik_cmdline>
J2VwaWtfcHl0aG9uJywgJy1waHQnLCAnMC41JywgJy1waCcsICc3LjUnLCAnLXRuJywgJzgnLCAnLW1hJywgJzUwMCcsICctaW1hZScsICc8aW5maWxlLm1hZT4nLCAnLW9tYWUnLCAnPG91dGZpbGUubWFlPic=

> <r_lp_tautomer_probability>
1

> <r_epik_Ionization_Penalty>
0.506491

> <r_epik_Ionization_Penalty_Charging>
0.169718

> <r_epik_Ionization_Penalty_Neutral>
0.336773

> <r_epik_State_Penalty>
0.490472

> <r_epik_Charging_Adjusted_Penalty>
0.66019

> <i_epik_Tot_Q>
2

> <i_epik_Tot_abs_Q>
2

> <s_lp_Force_Field>
S-OPLS

> <r_lp_Energy>
104.755

> <b_lp_Chiralities_Consistent>
1

> <s_lp_Variant>
ligprep_h3d.sdf:5406-1

> <ROCS_ShapeQuery>
_7L13

> <ROCS_TanimotoCombo>
0.704 

> <ROCS_ShapeTanimoto>
0.612 

> <ROCS_ColorTanimoto>
0.092 

> <ROCS_RefTversky>
0.801 

> <ROCS_RefColorTversky>
0.218 

> <ROCS_RefTverskyCombo>
1.019 

> <ROCS_FitTversky>
0.722 

> <ROCS_FitColorTversky>
0.138 

> <ROCS_FitTverskyCombo>
0.859 

> <ROCS_ColorScore>
-2.030

> <ROCS_Overlap>
1337.789

> <ROCS_Rank>
204                 

$$$$
ligprep_h3d.sdf:888_253
  -OEChem-08212117123D

 61 66  0     1  0  0  0  0  0999 V2000
  -19.2062   -7.3521  -35.5559 C   0  0  0  0  0  0  0  0  0  0  0  0
  -20.8745   -4.9767  -29.5467 C   0  0  0  0  0  0  0  0  0  0  0  0
  -21.7207   -4.2723  -30.4054 C   0  0  0  0  0  0  0  0  0  0  0  0
  -21.0066   -4.7841  -28.1498 C   0  0  0  0  0  0  0  0  0  0  0  0
  -21.9904   -3.9362  -27.5889 C   0  0  0  0  0  0  0  0  0  0  0  0
  -22.6534   -3.4217  -29.8544 C   0  0  0  0  0  0  0  0  0  0  0  0
  -22.8209   -3.2209  -28.4840 C   0  0  0  0  0  0  0  0  0  0  0  0
  -21.9300   -4.1474  -31.7913 C   0  0  0  0  0  0  0  0  0  0  0  0
  -18.9461   -3.5721  -26.2072 C   0  0  0  0  0  0  0  0  0  0  0  0
  -19.0694   -5.8908  -25.0870 C   0  0  0  0  0  0  0  0  0  0  0  0
  -16.8936   -4.9014  -25.7690 C   0  0  0  0  0  0  0  0  0  0  0  0
  -20.0641   -5.5438  -27.2549 C   0  0  0  0  0  0  0  0  0  0  0  0
  -19.8095   -6.8579  -33.2137 C   0  0  0  0  0  0  0  0  0  0  0  0
  -20.6028   -5.3766  -35.0657 C   0  0  0  0  0  0  0  0  0  0  0  0
  -20.1266   -5.7569  -32.2027 C   0  0  0  0  0  0  0  0  0  0  0  0
  -20.9229   -4.2804  -34.0493 C   0  0  0  0  0  0  0  0  0  0  0  0
  -23.1527   -2.9477  -25.6255 C   0  0  0  0  0  0  0  0  0  0  0  0
  -19.4598   -6.2745  -34.5855 C   0  0  0  0  0  0  0  0  0  0  0  0
  -21.1665   -4.4582  -25.2581 C   0  0  2  0  0  0  0  0  0  0  0  0
  -23.4892   -3.3314  -24.1818 C   0  0  1  0  0  0  0  0  0  0  0  0
  -21.0858   -3.5452  -24.0001 C   0  0  2  0  0  0  0  0  0  0  0  0
  -19.7981   -4.8177  -25.9126 C   0  0  0  0  0  0  0  0  0  0  0  0
  -24.3645   -4.5802  -24.0938 C   0  0  0  0  0  0  0  0  0  0  0  0
  -20.0881   -3.9661  -22.9276 C   0  0  0  0  0  0  0  0  0  0  0  0
  -19.0064   -8.2014  -36.3207 N   0  0  0  0  0  0  0  0  0  0  0  0
  -22.9118   -3.2878  -32.0801 N   0  0  0  0  0  0  0  0  0  0  0  0
  -17.5773   -3.7879  -26.2358 N   0  0  0  0  0  0  0  0  0  0  0  0
  -17.6872   -5.8821  -25.1911 N   0  0  0  0  0  0  0  0  0  0  0  0
  -22.1131   -3.8092  -26.2032 N   0  0  3  0  0  0  0  0  0  0  0  0
  -21.1676   -4.8606  -32.7246 N   0  0  0  0  0  0  0  0  0  0  0  0
  -19.4287   -2.4695  -26.4650 O   0  0  0  0  0  0  0  0  0  0  0  0
  -19.6637   -6.7585  -24.4459 O   0  0  0  0  0  0  0  0  0  0  0  0
  -15.6663   -4.9945  -25.8265 O   0  0  0  0  0  0  0  0  0  0  0  0
  -23.3669   -2.8277  -30.8499 O   0  0  0  0  0  0  0  0  0  0  0  0
  -22.3561   -3.5113  -23.3377 O   0  0  0  0  0  0  0  0  0  0  0  0
  -23.6918   -2.2833  -28.0922 F   0  0  0  0  0  0  0  0  0  0  0  0
  -20.1224   -5.6532  -29.9427 H   0  0  0  0  0  0  0  0  0  0  0  0
  -20.5036   -6.5357  -27.0811 H   0  0  0  0  0  0  0  0  0  0  0  0
  -19.1138   -5.7093  -27.7809 H   0  0  0  0  0  0  0  0  0  0  0  0
  -18.9614   -7.4397  -32.8464 H   0  0  0  0  0  0  0  0  0  0  0  0
  -20.6609   -7.5356  -33.2900 H   0  0  0  0  0  0  0  0  0  0  0  0
  -21.5007   -5.9663  -35.2565 H   0  0  0  0  0  0  0  0  0  0  0  0
  -20.3151   -4.9075  -36.0093 H   0  0  0  0  0  0  0  0  0  0  0  0
  -20.4621   -6.1903  -31.2520 H   0  0  0  0  0  0  0  0  0  0  0  0
  -19.2068   -5.1951  -31.9948 H   0  0  0  0  0  0  0  0  0  0  0  0
  -20.0791   -3.5793  -34.0115 H   0  0  0  0  0  0  0  0  0  0  0  0
  -21.8041   -3.7077  -34.3653 H   0  0  0  0  0  0  0  0  0  0  0  0
  -24.0582   -3.0561  -26.2579 H   0  0  0  0  0  0  0  0  0  0  0  0
  -22.9384   -1.8680  -25.6387 H   0  0  0  0  0  0  0  0  0  0  0  0
  -18.5569   -5.6805  -34.4970 H   0  0  0  0  0  0  0  0  0  0  0  0
  -21.6616   -5.3935  -24.9540 H   0  0  0  0  0  0  0  0  0  0  0  0
  -24.1151   -2.4889  -23.7238 H   0  0  0  0  0  0  0  0  0  0  0  0
  -20.8340   -2.5072  -24.2850 H   0  0  0  0  0  0  0  0  0  0  0  0
  -23.8363   -5.4365  -24.5134 H   0  0  0  0  0  0  0  0  0  0  0  0
  -25.2891   -4.4277  -24.6508 H   0  0  0  0  0  0  0  0  0  0  0  0
  -24.6096   -4.7914  -23.0527 H   0  0  0  0  0  0  0  0  0  0  0  0
  -20.2925   -4.9883  -22.6090 H   0  0  0  0  0  0  0  0  0  0  0  0
  -20.1669   -3.3044  -22.0651 H   0  0  0  0  0  0  0  0  0  0  0  0
  -19.0732   -3.9145  -23.3219 H   0  0  0  0  0  0  0  0  0  0  0  0
  -17.0122   -3.0493  -26.6435 H   0  0  0  0  0  0  0  0  0  0  0  0
  -17.1967   -6.6544  -24.7494 H   0  0  0  0  0  0  0  0  0  0  0  0
  1 18  1  0  0  0  0
  1 25  3  0  0  0  0
  2  3  2  0  0  0  0
  2  4  1  0  0  0  0
  3  6  1  0  0  0  0
  3  8  1  0  0  0  0
  4  5  2  0  0  0  0
  4 12  1  0  0  0  0
  5  7  1  0  0  0  0
  5 29  1  0  0  0  0
  6  7  2  0  0  0  0
  6 34  1  0  0  0  0
  7 36  1  0  0  0  0
  8 26  2  0  0  0  0
  8 30  1  0  0  0  0
  9 22  1  0  0  0  0
  9 27  1  0  0  0  0
  9 31  2  0  0  0  0
 10 22  1  0  0  0  0
 10 28  1  0  0  0  0
 10 32  2  0  0  0  0
 11 27  1  0  0  0  0
 11 28  1  0  0  0  0
 11 33  2  0  0  0  0
 12 22  1  0  0  0  0
 13 15  1  0  0  0  0
 13 18  1  0  0  0  0
 14 16  1  0  0  0  0
 14 18  1  0  0  0  0
 15 30  1  0  0  0  0
 16 30  1  0  0  0  0
 17 20  1  0  0  0  0
 17 29  1  0  0  0  0
 19 21  1  0  0  0  0
 19 22  1  0  0  0  0
 19 29  1  0  0  0  0
 20 23  1  0  0  0  0
 20 35  1  0  0  0  0
 21 24  1  0  0  0  0
 21 35  1  0  0  0  0
 26 34  1  0  0  0  0
  2 37  1  0  0  0  0
 12 38  1  0  0  0  0
 12 39  1  0  0  0  0
 13 40  1  0  0  0  0
 13 41  1  0  0  0  0
 14 42  1  0  0  0  0
 14 43  1  0  0  0  0
 15 44  1  0  0  0  0
 15 45  1  0  0  0  0
 16 46  1  0  0  0  0
 16 47  1  0  0  0  0
 17 48  1  0  0  0  0
 17 49  1  0  0  0  0
 18 50  1  0  0  0  0
 19 51  1  0  0  0  0
 20 52  1  0  0  0  0
 21 53  1  0  0  0  0
 23 54  1  0  0  0  0
 23 55  1  0  0  0  0
 23 56  1  0  0  0  0
 24 57  1  0  0  0  0
 24 58  1  0  0  0  0
 24 59  1  0  0  0  0
 27 60  1  0  0  0  0
 28 61  1  0  0  0  0
M  END
> <SMILES>
C[C@@H]1CN2[C@H]([C@H](C)O1)C1(Cc3cc4c(noc4c(c32)F)N2CCC(CC2)C#N)C(=O)NC(=O)NC1=O

> <FORMATTED_ID>
H3D-005779

> <MOLFORMULA>
C24H25FN6O5

> <Exact Mass>
496.19

> <XLogP>
0.86

> <TPSA_NOPS>
141.1

> <s_m_source_file>
ligprep_h3d.sdf

> <i_m_source_file_index>
888

> <i_lp_mmshare_version>
55123

> <i_f3d_flags>
0

> <s_epik_input>
Tz1DMVtOSF1DKD1PKVtOSF1DKD1PKUMxMltDQEBIXTNOKFtDSDJdW0NAQEhdKFtDSDNdKU9bQ0BIXTNbQ0gzXSljNGMoW0NIMl0yKVtjSF1jNWMoYzRGKW9uYzVONltDSDJdW0NIMl1bQ0hdKEMjTilbQ0gyXVtDSDJdNg==

> <s_epik_cmdline>
J2VwaWtfcHl0aG9uJywgJy1waHQnLCAnMC41JywgJy1waCcsICc3LjUnLCAnLXRuJywgJzgnLCAnLW1hJywgJzUwMCcsICctaW1hZScsICc8aW5maWxlLm1hZT4nLCAnLW9tYWUnLCAnPG91dGZpbGUubWFlPic=

> <r_lp_tautomer_probability>
1

> <r_epik_Ionization_Penalty>
0.369125

> <r_epik_Ionization_Penalty_Charging>
0

> <r_epik_Ionization_Penalty_Neutral>
0.369125

> <r_epik_State_Penalty>
0.366447

> <r_epik_Charging_Adjusted_Penalty>
0.366447

> <i_epik_Tot_Q>
0

> <i_epik_Tot_abs_Q>
0

> <s_lp_Force_Field>
S-OPLS

> <r_lp_Energy>
46.7748

> <b_lp_Chiralities_Consistent>
1

> <s_lp_Variant>
ligprep_h3d.sdf:888-1

> <ROCS_ShapeQuery>
_7L13

> <ROCS_TanimotoCombo>
0.792 

> <ROCS_ShapeTanimoto>
0.658 

> <ROCS_ColorTanimoto>
0.134 

> <ROCS_RefTversky>
0.800 

> <ROCS_RefColorTversky>
0.294 

> <ROCS_RefTverskyCombo>
1.095 

> <ROCS_FitTversky>
0.787 

> <ROCS_FitColorTversky>
0.197 

> <ROCS_FitTverskyCombo>
0.984 

> <ROCS_ColorScore>
-2.722

> <ROCS_Overlap>
1330.425

> <ROCS_Rank>
205                 

$$$$
ligprep_h3d.sdf:4744_1747
  -OEChem-08212117123D

 62 66  0     1  0  0  0  0  0999 V2000
  -15.1485   -5.4461  -25.0853 C   0  0  0  0  0  0  0  0  0  0  0  0
  -24.9751   -5.0544  -22.5477 C   0  0  0  0  0  0  0  0  0  0  0  0
  -15.8726   -6.5066  -25.6299 C   0  0  0  0  0  0  0  0  0  0  0  0
  -15.6878   -4.1596  -25.0873 C   0  0  0  0  0  0  0  0  0  0  0  0
  -23.6654   -4.8116  -22.9616 C   0  0  0  0  0  0  0  0  0  0  0  0
  -26.0382   -4.8080  -23.4166 C   0  0  0  0  0  0  0  0  0  0  0  0
  -19.7243   -5.0285  -35.1815 C   0  0  0  0  0  0  0  0  0  0  0  0
  -20.0606   -6.9152  -33.7103 C   0  0  0  0  0  0  0  0  0  0  0  0
  -20.2162   -4.1725  -34.1962 C   0  0  0  0  0  0  0  0  0  0  0  0
  -20.5525   -6.0592  -32.7250 C   0  0  0  0  0  0  0  0  0  0  0  0
  -17.1359   -6.2808  -26.1765 C   0  0  0  0  0  0  0  0  0  0  0  0
  -16.9510   -3.9338  -25.6339 C   0  0  0  0  0  0  0  0  0  0  0  0
  -23.4187   -4.3223  -24.2443 C   0  0  0  0  0  0  0  0  0  0  0  0
  -25.7915   -4.3186  -24.6993 C   0  0  0  0  0  0  0  0  0  0  0  0
  -19.6466   -6.3999  -34.9386 C   0  0  0  0  0  0  0  0  0  0  0  0
  -20.6302   -4.6878  -32.9679 C   0  0  0  0  0  0  0  0  0  0  0  0
  -17.6751   -4.9943  -26.1785 C   0  0  0  0  0  0  0  0  0  0  0  0
  -24.4818   -4.0758  -25.1132 C   0  0  0  0  0  0  0  0  0  0  0  0
  -19.1281   -7.3026  -35.9789 C   0  0  0  0  0  0  0  0  0  0  0  0
  -22.1696   -4.4419  -31.0193 C   0  0  0  0  0  0  0  0  0  0  0  0
  -22.7532   -5.0835  -28.6955 C   0  0  0  0  0  0  0  0  0  0  0  0
  -19.8827   -5.6479  -27.3372 C   0  0  0  0  0  0  0  0  0  0  0  0
  -19.8657   -3.6930  -26.5666 C   0  0  0  0  0  0  0  0  0  0  0  0
  -20.6670   -3.8896  -29.0541 C   0  0  0  0  0  0  0  0  0  0  0  0
  -22.2570   -4.6069  -27.3342 C   0  0  1  0  0  0  0  0  0  0  0  0
  -20.7650   -4.3976  -27.6118 C   0  0  0  0  0  0  0  0  0  0  0  0
  -21.1561   -3.7661  -31.9081 C   0  0  0  0  0  0  0  0  0  0  0  0
  -22.9390   -3.3055  -26.9165 C   0  0  0  0  0  0  0  0  0  0  0  0
  -18.9447   -4.7670  -26.7276 N   0  0  0  0  0  0  0  0  0  0  0  0
  -21.8652   -4.4579  -29.6674 N   0  0  0  0  0  0  0  0  0  0  0  0
  -24.2352   -3.5858  -26.3978 N   0  0  0  0  0  0  0  0  0  0  0  0
  -19.0662   -8.5647  -35.7298 O   0  5  0  0  0  0  0  0  0  0  0  0
  -18.7530   -6.8010  -37.1043 O   0  0  0  0  0  0  0  0  0  0  0  0
  -23.1873   -4.9404  -31.5031 O   0  0  0  0  0  0  0  0  0  0  0  0
  -14.1647   -5.6221  -24.6599 H   0  0  0  0  0  0  0  0  0  0  0  0
  -25.1671   -5.4353  -21.5487 H   0  0  0  0  0  0  0  0  0  0  0  0
  -15.4527   -7.5080  -25.6284 H   0  0  0  0  0  0  0  0  0  0  0  0
  -15.1237   -3.3338  -24.6632 H   0  0  0  0  0  0  0  0  0  0  0  0
  -22.8380   -5.0034  -22.2851 H   0  0  0  0  0  0  0  0  0  0  0  0
  -27.0581   -4.9971  -23.0940 H   0  0  0  0  0  0  0  0  0  0  0  0
  -19.4044   -4.6168  -36.1354 H   0  0  0  0  0  0  0  0  0  0  0  0
  -20.0041   -7.9821  -33.5114 H   0  0  0  0  0  0  0  0  0  0  0  0
  -20.2731   -3.1055  -34.3949 H   0  0  0  0  0  0  0  0  0  0  0  0
  -20.8728   -6.4695  -31.7710 H   0  0  0  0  0  0  0  0  0  0  0  0
  -17.6919   -7.1139  -26.5985 H   0  0  0  0  0  0  0  0  0  0  0  0
  -17.3612   -2.9270  -25.6297 H   0  0  0  0  0  0  0  0  0  0  0  0
  -22.3946   -4.1363  -24.5571 H   0  0  0  0  0  0  0  0  0  0  0  0
  -26.6279   -4.1305  -25.3677 H   0  0  0  0  0  0  0  0  0  0  0  0
  -22.6245   -6.1672  -28.8012 H   0  0  0  0  0  0  0  0  0  0  0  0
  -23.7998   -4.8401  -28.9040 H   0  0  0  0  0  0  0  0  0  0  0  0
  -20.2928   -6.3729  -26.6254 H   0  0  0  0  0  0  0  0  0  0  0  0
  -19.4788   -6.1715  -28.2078 H   0  0  0  0  0  0  0  0  0  0  0  0
  -19.4514   -2.7239  -26.8555 H   0  0  0  0  0  0  0  0  0  0  0  0
  -20.2709   -3.6445  -25.5503 H   0  0  0  0  0  0  0  0  0  0  0  0
  -20.7474   -2.7988  -29.1085 H   0  0  0  0  0  0  0  0  0  0  0  0
  -19.7658   -4.2139  -29.5822 H   0  0  0  0  0  0  0  0  0  0  0  0
  -22.4361   -5.3641  -26.5629 H   0  0  0  0  0  0  0  0  0  0  0  0
  -20.3369   -3.4011  -31.2861 H   0  0  0  0  0  0  0  0  0  0  0  0
  -21.6224   -2.8872  -32.3558 H   0  0  0  0  0  0  0  0  0  0  0  0
  -22.3126   -2.8432  -26.1557 H   0  0  0  0  0  0  0  0  0  0  0  0
  -23.0078   -2.6786  -27.8038 H   0  0  0  0  0  0  0  0  0  0  0  0
  -25.0537   -3.4229  -26.9901 H   0  0  0  0  0  0  0  0  0  0  0  0
  1  3  2  0  0  0  0
  1  4  1  0  0  0  0
  2  5  2  0  0  0  0
  2  6  1  0  0  0  0
  3 11  1  0  0  0  0
  4 12  2  0  0  0  0
  5 13  1  0  0  0  0
  6 14  2  0  0  0  0
  7  9  1  0  0  0  0
  7 15  2  0  0  0  0
  8 10  2  0  0  0  0
  8 15  1  0  0  0  0
  9 16  2  0  0  0  0
 10 16  1  0  0  0  0
 11 17  2  0  0  0  0
 12 17  1  0  0  0  0
 13 18  2  0  0  0  0
 14 18  1  0  0  0  0
 15 19  1  0  0  0  0
 16 27  1  0  0  0  0
 17 29  1  0  0  0  0
 18 31  1  0  0  0  0
 19 32  1  0  0  0  0
 19 33  2  0  0  0  0
 20 27  1  0  0  0  0
 20 30  1  0  0  0  0
 20 34  2  0  0  0  0
 21 25  1  0  0  0  0
 21 30  1  0  0  0  0
 22 26  1  0  0  0  0
 22 29  1  0  0  0  0
 23 26  1  0  0  0  0
 23 29  1  0  0  0  0
 24 26  1  0  0  0  0
 24 30  1  0  0  0  0
 25 26  1  0  0  0  0
 25 28  1  0  0  0  0
 28 31  1  0  0  0  0
  1 35  1  0  0  0  0
  2 36  1  0  0  0  0
  3 37  1  0  0  0  0
  4 38  1  0  0  0  0
  5 39  1  0  0  0  0
  6 40  1  0  0  0  0
  7 41  1  0  0  0  0
  8 42  1  0  0  0  0
  9 43  1  0  0  0  0
 10 44  1  0  0  0  0
 11 45  1  0  0  0  0
 12 46  1  0  0  0  0
 13 47  1  0  0  0  0
 14 48  1  0  0  0  0
 21 49  1  0  0  0  0
 21 50  1  0  0  0  0
 22 51  1  0  0  0  0
 22 52  1  0  0  0  0
 23 53  1  0  0  0  0
 23 54  1  0  0  0  0
 24 55  1  0  0  0  0
 24 56  1  0  0  0  0
 25 57  1  0  0  0  0
 27 58  1  0  0  0  0
 27 59  1  0  0  0  0
 28 60  1  0  0  0  0
 28 61  1  0  0  0  0
 31 62  1  0  0  0  0
M  CHG  1  32  -1
M  END
> <SMILES>
OC(=O)c1ccc(cc1)CC(=O)N1CC(CNc2ccccc2)C2(C1)CN(C2)c1ccccc1

> <FORMATTED_ID>
H3D-007233

> <MOLFORMULA>
C28H29N3O3

> <Exact Mass>
455.22

> <XLogP>
3.39

> <TPSA_NOPS>
72.9

> <s_m_source_file>
ligprep_h3d.sdf

> <i_m_source_file_index>
4744

> <i_lp_mmshare_version>
55123

> <i_f3d_flags>
0

> <s_epik_input>
W09IXUMoPU8pYzFbY0hdW2NIXWMoW2NIXVtjSF0xKVtDSDJdQyg9TylOKFtDSDJdMilbQ0gyXVtDQEhdKFtDSDJdW05IXWMzW2NIXVtjSF1bY0hdW2NIXVtjSF0zKUMyNFtDSDJdTihbQ0gyXTQpYzVbY0hdW2NIXVtjSF1bY0hdW2NIXTU=

> <s_epik_cmdline>
J2VwaWtfcHl0aG9uJywgJy1waHQnLCAnMC41JywgJy1waCcsICc3LjUnLCAnLXRuJywgJzgnLCAnLW1hJywgJzUwMCcsICctaW1hZScsICc8aW5maWxlLm1hZT4nLCAnLW9tYWUnLCAnPG91dGZpbGUubWFlPic=

> <r_lp_tautomer_probability>
1

> <r_epik_Ionization_Penalty>
0.0031641

> <r_epik_Ionization_Penalty_Charging>
0.000252072

> <r_epik_Ionization_Penalty_Neutral>
0.00291202

> <r_epik_State_Penalty>
-0

> <r_epik_Charging_Adjusted_Penalty>
0.000252072

> <i_epik_Tot_Q>
-1

> <i_epik_Tot_abs_Q>
1

> <s_lp_Force_Field>
S-OPLS

> <r_lp_Energy>
46.895

> <b_lp_Chiralities_Consistent>
1

> <s_lp_Variant>
ligprep_h3d.sdf:4744-1

> <ROCS_ShapeQuery>
_7L13

> <ROCS_TanimotoCombo>
0.764 

> <ROCS_ShapeTanimoto>
0.701 

> <ROCS_ColorTanimoto>
0.063 

> <ROCS_RefTversky>
0.800 

> <ROCS_RefColorTversky>
0.124 

> <ROCS_RefTverskyCombo>
0.924 

> <ROCS_FitTversky>
0.850 

> <ROCS_FitColorTversky>
0.113 

> <ROCS_FitTverskyCombo>
0.963 

> <ROCS_ColorScore>
-1.123

> <ROCS_Overlap>
1324.838

> <ROCS_Rank>
206                 

$$$$
ligprep_h3d.sdf:854_790
  -OEChem-08212117123D

 66 71  0     1  0  0  0  0  0999 V2000
  -20.8629   -5.0176  -29.5149 C   0  0  0  0  0  0  0  0  0  0  0  0
  -21.7060   -4.3030  -30.3680 C   0  0  0  0  0  0  0  0  0  0  0  0
  -20.9960   -4.8381  -28.1162 C   0  0  0  0  0  0  0  0  0  0  0  0
  -21.9814   -3.9961  -27.5491 C   0  0  0  0  0  0  0  0  0  0  0  0
  -22.6357   -3.4536  -29.8101 C   0  0  0  0  0  0  0  0  0  0  0  0
  -22.8041   -3.2650  -28.4380 C   0  0  0  0  0  0  0  0  0  0  0  0
  -21.9124   -4.1633  -31.7530 C   0  0  0  0  0  0  0  0  0  0  0  0
  -18.9114   -3.6843  -26.1707 C   0  0  0  0  0  0  0  0  0  0  0  0
  -19.0869   -6.0070  -25.0601 C   0  0  0  0  0  0  0  0  0  0  0  0
  -16.8861   -5.0418  -25.6923 C   0  0  0  0  0  0  0  0  0  0  0  0
  -20.1423   -7.8721  -34.4622 C   0  0  0  0  0  0  0  0  0  0  0  0
  -20.0670   -5.6219  -27.2282 C   0  0  0  0  0  0  0  0  0  0  0  0
  -19.9508   -5.3829  -34.6268 C   0  0  0  0  0  0  0  0  0  0  0  0
  -20.3335   -4.2332  -33.6991 C   0  0  0  0  0  0  0  0  0  0  0  0
  -21.1014   -6.3193  -32.7442 C   0  0  0  0  0  0  0  0  0  0  0  0
  -23.4014   -3.5305  -25.5665 C   0  0  0  0  0  0  0  0  0  0  0  0
  -19.9466   -6.5968  -33.7080 C   0  0  1  0  0  0  0  0  0  0  0  0
  -21.1487   -4.5264  -25.2237 C   0  0  2  0  0  0  0  0  0  0  0  0
  -23.1894   -2.7028  -24.3000 C   0  0  1  0  0  0  0  0  0  0  0  0
  -21.0274   -3.6111  -23.9667 C   0  0  2  0  0  0  0  0  0  0  0  0
  -19.7892   -4.9132  -25.8810 C   0  0  0  0  0  0  0  0  0  0  0  0
  -24.5088   -2.4567  -23.5796 C   0  0  0  0  0  0  0  0  0  0  0  0
  -20.1786   -4.1717  -22.8323 C   0  0  0  0  0  0  0  0  0  0  0  0
  -19.0414   -8.6310  -37.8682 C   0  0  0  0  0  0  0  0  0  0  0  0
  -19.7022   -8.9154  -36.5363 C   0  0  0  0  0  0  0  0  0  0  0  0
  -22.8879   -3.2943  -32.0349 N   0  0  0  0  0  0  0  0  0  0  0  0
  -17.5455   -3.9169  -26.1653 N   0  0  0  0  0  0  0  0  0  0  0  0
  -17.7036   -6.0170  -25.1405 N   0  0  0  0  0  0  0  0  0  0  0  0
  -22.0955   -3.8601  -26.1621 N   0  0  1  0  0  0  0  0  0  0  0  0
  -21.1649   -4.8619  -32.6776 N   0  0  0  0  0  0  0  0  0  0  0  0
  -19.3728   -2.5794  -26.4578 O   0  0  0  0  0  0  0  0  0  0  0  0
  -19.7032   -6.8746  -24.4396 O   0  0  0  0  0  0  0  0  0  0  0  0
  -15.6590   -5.1498  -25.7244 O   0  0  0  0  0  0  0  0  0  0  0  0
  -20.7170   -8.8537  -34.0112 O   0  0  0  0  0  0  0  0  0  0  0  0
  -23.3420   -2.8433  -30.8009 O   0  0  0  0  0  0  0  0  0  0  0  0
  -22.3321   -3.4047  -23.4019 O   0  0  0  0  0  0  0  0  0  0  0  0
  -19.5869   -7.7582  -35.7022 O   0  0  0  0  0  0  0  0  0  0  0  0
  -23.6678   -2.3241  -28.0385 F   0  0  0  0  0  0  0  0  0  0  0  0
  -20.1119   -5.6924  -29.9164 H   0  0  0  0  0  0  0  0  0  0  0  0
  -20.5239   -6.6077  -27.0639 H   0  0  0  0  0  0  0  0  0  0  0  0
  -19.1198   -5.7993  -27.7562 H   0  0  0  0  0  0  0  0  0  0  0  0
  -20.6444   -5.4739  -35.4654 H   0  0  0  0  0  0  0  0  0  0  0  0
  -18.9439   -5.2155  -35.0219 H   0  0  0  0  0  0  0  0  0  0  0  0
  -19.4458   -3.7552  -33.2705 H   0  0  0  0  0  0  0  0  0  0  0  0
  -20.9159   -3.4763  -34.2379 H   0  0  0  0  0  0  0  0  0  0  0  0
  -22.0468   -6.7512  -33.0887 H   0  0  0  0  0  0  0  0  0  0  0  0
  -20.8722   -6.7145  -31.7488 H   0  0  0  0  0  0  0  0  0  0  0  0
  -23.8952   -4.4786  -25.3139 H   0  0  0  0  0  0  0  0  0  0  0  0
  -24.0950   -2.9922  -26.2079 H   0  0  0  0  0  0  0  0  0  0  0  0
  -18.9895   -6.6774  -33.1657 H   0  0  0  0  0  0  0  0  0  0  0  0
  -21.6564   -5.4494  -24.9074 H   0  0  0  0  0  0  0  0  0  0  0  0
  -22.7415   -1.7316  -24.5463 H   0  0  0  0  0  0  0  0  0  0  0  0
  -20.6162   -2.6301  -24.2333 H   0  0  0  0  0  0  0  0  0  0  0  0
  -24.9766   -3.4073  -23.3225 H   0  0  0  0  0  0  0  0  0  0  0  0
  -25.1850   -1.8924  -24.2220 H   0  0  0  0  0  0  0  0  0  0  0  0
  -24.3344   -1.8897  -22.6650 H   0  0  0  0  0  0  0  0  0  0  0  0
  -20.5541   -5.1507  -22.5346 H   0  0  0  0  0  0  0  0  0  0  0  0
  -20.2160   -3.5022  -21.9730 H   0  0  0  0  0  0  0  0  0  0  0  0
  -19.1431   -4.2735  -23.1570 H   0  0  0  0  0  0  0  0  0  0  0  0
  -19.5242   -7.7886  -38.3714 H   0  0  0  0  0  0  0  0  0  0  0  0
  -17.9800   -8.3996  -37.7310 H   0  0  0  0  0  0  0  0  0  0  0  0
  -19.0939   -9.5092  -38.5203 H   0  0  0  0  0  0  0  0  0  0  0  0
  -19.2147   -9.7588  -36.0383 H   0  0  0  0  0  0  0  0  0  0  0  0
  -20.7628   -9.1455  -36.6752 H   0  0  0  0  0  0  0  0  0  0  0  0
  -16.9610   -3.1805  -26.5514 H   0  0  0  0  0  0  0  0  0  0  0  0
  -17.2320   -6.8020  -24.6998 H   0  0  0  0  0  0  0  0  0  0  0  0
  1  2  2  0  0  0  0
  1  3  1  0  0  0  0
  2  5  1  0  0  0  0
  2  7  1  0  0  0  0
  3  4  2  0  0  0  0
  3 12  1  0  0  0  0
  4  6  1  0  0  0  0
  4 29  1  0  0  0  0
  5  6  2  0  0  0  0
  5 35  1  0  0  0  0
  6 38  1  0  0  0  0
  7 26  2  0  0  0  0
  7 30  1  0  0  0  0
  8 21  1  0  0  0  0
  8 27  1  0  0  0  0
  8 31  2  0  0  0  0
  9 21  1  0  0  0  0
  9 28  1  0  0  0  0
  9 32  2  0  0  0  0
 10 27  1  0  0  0  0
 10 28  1  0  0  0  0
 10 33  2  0  0  0  0
 11 17  1  0  0  0  0
 11 34  2  0  0  0  0
 11 37  1  0  0  0  0
 12 21  1  0  0  0  0
 13 14  1  0  0  0  0
 13 17  1  0  0  0  0
 14 30  1  0  0  0  0
 15 17  1  0  0  0  0
 15 30  1  0  0  0  0
 16 19  1  0  0  0  0
 16 29  1  0  0  0  0
 18 20  1  0  0  0  0
 18 21  1  0  0  0  0
 18 29  1  0  0  0  0
 19 22  1  0  0  0  0
 19 36  1  0  0  0  0
 20 23  1  0  0  0  0
 20 36  1  0  0  0  0
 24 25  1  0  0  0  0
 25 37  1  0  0  0  0
 26 35  1  0  0  0  0
  1 39  1  0  0  0  0
 12 40  1  0  0  0  0
 12 41  1  0  0  0  0
 13 42  1  0  0  0  0
 13 43  1  0  0  0  0
 14 44  1  0  0  0  0
 14 45  1  0  0  0  0
 15 46  1  0  0  0  0
 15 47  1  0  0  0  0
 16 48  1  0  0  0  0
 16 49  1  0  0  0  0
 17 50  1  0  0  0  0
 18 51  1  0  0  0  0
 19 52  1  0  0  0  0
 20 53  1  0  0  0  0
 22 54  1  0  0  0  0
 22 55  1  0  0  0  0
 22 56  1  0  0  0  0
 23 57  1  0  0  0  0
 23 58  1  0  0  0  0
 23 59  1  0  0  0  0
 24 60  1  0  0  0  0
 24 61  1  0  0  0  0
 24 62  1  0  0  0  0
 25 63  1  0  0  0  0
 25 64  1  0  0  0  0
 27 65  1  0  0  0  0
 28 66  1  0  0  0  0
M  END
> <SMILES>
CCOC(=O)[C@H]1CCN(C1)c1noc2c(c3c(cc12)CC1([C@H]2[C@H](C)O[C@H](C)CN23)C(=O)NC(=O)NC1=O)F

> <FORMATTED_ID>
H3D-005666

> <MOLFORMULA>
C25H28FN5O7

> <Exact Mass>
529.2

> <XLogP>
1.01

> <TPSA_NOPS>
143.6

> <s_m_source_file>
ligprep_h3d.sdf

> <i_m_source_file_index>
854

> <i_lp_mmshare_version>
55123

> <i_f3d_flags>
0

> <s_epik_input>
W0NIM11bQ0gyXU9DKD1PKVtDQEhdMVtDSDJdW0NIMl1OKFtDSDJdMSljMm5vYyhjM0YpYzJbY0hdYyhbQ0gyXTQpYzNOKFtDSDJdW0NAQEhdKFtDSDNdKU9bQ0BIXTVbQ0gzXSlbQ0BIXTVDNDZDKD1PKVtOSF1DKD1PKVtOSF1DNj1P

> <s_epik_cmdline>
J2VwaWtfcHl0aG9uJywgJy1waHQnLCAnMC41JywgJy1waCcsICc3LjUnLCAnLXRuJywgJzgnLCAnLW1hJywgJzUwMCcsICctaW1hZScsICc8aW5maWxlLm1hZT4nLCAnLW9tYWUnLCAnPG91dGZpbGUubWFlPic=

> <r_lp_tautomer_probability>
1

> <r_epik_Ionization_Penalty>
0.369125

> <r_epik_Ionization_Penalty_Charging>
0

> <r_epik_Ionization_Penalty_Neutral>
0.369125

> <r_epik_State_Penalty>
0.366447

> <r_epik_Charging_Adjusted_Penalty>
0.366447

> <i_epik_Tot_Q>
0

> <i_epik_Tot_abs_Q>
0

> <s_epik_Chemistry_Notes>
This compound has an ester and may undergo hydrolysis at high or low pH.

> <s_lp_Force_Field>
S-OPLS

> <r_lp_Energy>
44.4973

> <b_lp_Chiralities_Consistent>
1

> <s_lp_Variant>
ligprep_h3d.sdf:854-1

> <ROCS_ShapeQuery>
_7L13

> <ROCS_TanimotoCombo>
0.763 

> <ROCS_ShapeTanimoto>
0.631 

> <ROCS_ColorTanimoto>
0.132 

> <ROCS_RefTversky>
0.800 

> <ROCS_RefColorTversky>
0.289 

> <ROCS_RefTverskyCombo>
1.090 

> <ROCS_FitTversky>
0.749 

> <ROCS_FitColorTversky>
0.194 

> <ROCS_FitTverskyCombo>
0.944 

> <ROCS_ColorScore>
-2.677

> <ROCS_Overlap>
1334.091

> <ROCS_Rank>
207                 

$$$$
ligprep_h3d.sdf:2404_1093
  -OEChem-08212117123D

 54 58  0     0  0  0  0  0  0999 V2000
  -19.2417   -3.0490  -23.4363 C   0  0  0  0  0  0  0  0  0  0  0  0
  -25.7682   -4.4373  -23.1768 C   0  0  0  0  0  0  0  0  0  0  0  0
  -25.7976   -5.0989  -24.4000 C   0  0  0  0  0  0  0  0  0  0  0  0
  -22.5914   -5.2365  -32.8555 C   0  0  0  0  0  0  0  0  0  0  0  0
  -24.5846   -3.8613  -22.7123 C   0  0  0  0  0  0  0  0  0  0  0  0
  -24.6534   -5.1937  -25.2019 C   0  0  0  0  0  0  0  0  0  0  0  0
  -22.0007   -6.0986  -33.7727 C   0  0  0  0  0  0  0  0  0  0  0  0
  -20.4332   -4.3683  -32.3604 C   0  0  0  0  0  0  0  0  0  0  0  0
  -21.7997   -4.3517  -32.1318 C   0  0  0  0  0  0  0  0  0  0  0  0
  -23.4255   -3.9525  -23.5043 C   0  0  0  0  0  0  0  0  0  0  0  0
  -23.4695   -4.5934  -24.7438 C   0  0  0  0  0  0  0  0  0  0  0  0
  -20.6253   -6.0369  -33.9279 C   0  0  0  0  0  0  0  0  0  0  0  0
  -21.4240   -3.8432  -24.2560 C   0  0  0  0  0  0  0  0  0  0  0  0
  -20.2869   -4.6828  -26.6603 C   0  0  0  0  0  0  0  0  0  0  0  0
  -20.0189   -3.6596  -24.4644 C   0  0  0  0  0  0  0  0  0  0  0  0
  -19.4591   -4.0752  -25.6232 C   0  0  0  0  0  0  0  0  0  0  0  0
  -21.6124   -4.8695  -26.4905 C   0  0  0  0  0  0  0  0  0  0  0  0
  -23.5176   -4.5077  -27.9611 C   0  0  0  0  0  0  0  0  0  0  0  0
  -21.6602   -5.8718  -28.7082 C   0  0  0  0  0  0  0  0  0  0  0  0
  -23.0309   -3.3113  -28.7758 C   0  0  0  0  0  0  0  0  0  0  0  0
  -21.0982   -4.7310  -29.5535 C   0  0  0  0  0  0  0  0  0  0  0  0
  -22.4068   -3.4085  -31.1339 C   0  0  0  0  0  0  0  0  0  0  0  0
  -19.9579   -6.9473  -34.9039 C   0  0  0  0  0  0  0  0  0  0  0  0
  -18.0009   -3.9592  -25.9802 C   0  0  0  0  0  0  0  0  0  0  0  0
  -18.6096   -2.5524  -22.5999 N   0  0  0  0  0  0  0  0  0  0  0  0
  -19.8234   -5.1910  -33.2429 N   0  0  0  0  0  0  0  0  0  0  0  0
  -22.1682   -3.4970  -23.2273 N   0  0  0  0  0  0  0  0  0  0  0  0
  -22.1781   -4.4722  -25.2570 N   0  0  0  0  0  0  0  0  0  0  0  0
  -22.4483   -5.4281  -27.5500 N   0  0  0  0  0  0  0  0  0  0  0  0
  -22.1938   -3.8020  -29.8859 N   0  0  0  0  0  0  0  0  0  0  0  0
  -20.8240   -7.7741  -35.5607 F   0  0  0  0  0  0  0  0  0  0  0  0
  -19.2779   -6.2887  -35.8880 F   0  0  0  0  0  0  0  0  0  0  0  0
  -19.0430   -7.7695  -34.3130 F   0  0  0  0  0  0  0  0  0  0  0  0
  -17.7729   -4.4542  -27.2105 F   0  0  0  0  0  0  0  0  0  0  0  0
  -17.6083   -2.6720  -25.9658 F   0  0  0  0  0  0  0  0  0  0  0  0
  -17.2383   -4.6404  -25.1052 F   0  0  0  0  0  0  0  0  0  0  0  0
  -26.6691   -4.3776  -22.5725 H   0  0  0  0  0  0  0  0  0  0  0  0
  -26.7243   -5.5551  -24.7397 H   0  0  0  0  0  0  0  0  0  0  0  0
  -23.6680   -5.2606  -32.7112 H   0  0  0  0  0  0  0  0  0  0  0  0
  -24.5608   -3.3606  -21.7492 H   0  0  0  0  0  0  0  0  0  0  0  0
  -24.7133   -5.7363  -26.1365 H   0  0  0  0  0  0  0  0  0  0  0  0
  -22.6071   -6.7936  -34.3435 H   0  0  0  0  0  0  0  0  0  0  0  0
  -19.7650   -3.7007  -31.8252 H   0  0  0  0  0  0  0  0  0  0  0  0
  -19.8044   -4.9625  -27.5930 H   0  0  0  0  0  0  0  0  0  0  0  0
  -24.0811   -4.1286  -27.0699 H   0  0  0  0  0  0  0  0  0  0  0  0
  -24.2787   -5.0860  -28.5451 H   0  0  0  0  0  0  0  0  0  0  0  0
  -22.3018   -6.5388  -29.3394 H   0  0  0  0  0  0  0  0  0  0  0  0
  -20.8119   -6.5289  -28.3852 H   0  0  0  0  0  0  0  0  0  0  0  0
  -23.9007   -2.7919  -29.1710 H   0  0  0  0  0  0  0  0  0  0  0  0
  -22.4775   -2.6249  -28.1381 H   0  0  0  0  0  0  0  0  0  0  0  0
  -20.3010   -4.2231  -29.0142 H   0  0  0  0  0  0  0  0  0  0  0  0
  -20.6845   -5.1547  -30.4658 H   0  0  0  0  0  0  0  0  0  0  0  0
  -21.9861   -2.4034  -31.2471 H   0  0  0  0  0  0  0  0  0  0  0  0
  -23.4891   -3.3263  -31.2789 H   0  0  0  0  0  0  0  0  0  0  0  0
  1 15  1  0  0  0  0
  1 25  3  0  0  0  0
  2  3  2  0  0  0  0
  2  5  1  0  0  0  0
  3  6  1  0  0  0  0
  4  7  1  0  0  0  0
  4  9  2  0  0  0  0
  5 10  2  0  0  0  0
  6 11  2  0  0  0  0
  7 12  2  0  0  0  0
  8  9  1  0  0  0  0
  8 26  2  0  0  0  0
  9 22  1  0  0  0  0
 10 11  1  0  0  0  0
 10 27  1  0  0  0  0
 11 28  1  0  0  0  0
 12 23  1  0  0  0  0
 12 26  1  0  0  0  0
 13 15  1  0  0  0  0
 13 27  2  0  0  0  0
 13 28  1  0  0  0  0
 14 16  1  0  0  0  0
 14 17  2  0  0  0  0
 15 16  2  0  0  0  0
 16 24  1  0  0  0  0
 17 28  1  0  0  0  0
 17 29  1  0  0  0  0
 18 20  1  0  0  0  0
 18 29  1  0  0  0  0
 19 21  1  0  0  0  0
 19 29  1  0  0  0  0
 20 30  1  0  0  0  0
 21 30  1  0  0  0  0
 22 30  1  0  0  0  0
 23 31  1  0  0  0  0
 23 32  1  0  0  0  0
 23 33  1  0  0  0  0
 24 34  1  0  0  0  0
 24 35  1  0  0  0  0
 24 36  1  0  0  0  0
  2 37  1  0  0  0  0
  3 38  1  0  0  0  0
  4 39  1  0  0  0  0
  5 40  1  0  0  0  0
  6 41  1  0  0  0  0
  7 42  1  0  0  0  0
  8 43  1  0  0  0  0
 14 44  1  0  0  0  0
 18 45  1  0  0  0  0
 18 46  1  0  0  0  0
 19 47  1  0  0  0  0
 19 48  1  0  0  0  0
 20 49  1  0  0  0  0
 20 50  1  0  0  0  0
 21 51  1  0  0  0  0
 21 52  1  0  0  0  0
 22 53  1  0  0  0  0
 22 54  1  0  0  0  0
M  END
> <SMILES>
FC(F)(F)c1ccc(cn1)CN1CCN(CC1)c1cc(c(c2nc3ccccc3n12)C#N)C(F)(F)F

> <FORMATTED_ID>
H3D-005553

> <MOLFORMULA>
C24H18F6N6

> <Exact Mass>
504.15

> <XLogP>
5.28

> <TPSA_NOPS>
60.5

> <s_m_source_file>
ligprep_h3d.sdf

> <i_m_source_file_index>
2404

> <i_lp_mmshare_version>
55123

> <i_f3d_flags>
0

> <s_epik_input>
RkMoRikoRiljMVtjSF1bY0hdYyhbY0hdbjEpW0NIMl1OMltDSDJdW0NIMl1OKFtDSDJdW0NIMl0yKWMoW2NIXWMoQyhGKShGKUYpYzNDI04pbihjMzQpYzVjKG40KVtjSF1bY0hdW2NIXVtjSF01

> <s_epik_cmdline>
J2VwaWtfcHl0aG9uJywgJy1waHQnLCAnMC41JywgJy1waCcsICc3LjUnLCAnLXRuJywgJzgnLCAnLW1hJywgJzUwMCcsICctaW1hZScsICc8aW5maWxlLm1hZT4nLCAnLW9tYWUnLCAnPG91dGZpbGUubWFlPic=

> <r_epik_Ionization_Penalty>
0.231912

> <r_epik_Ionization_Penalty_Charging>
0

> <r_epik_Ionization_Penalty_Neutral>
0.231912

> <r_epik_State_Penalty>
0.222212

> <r_epik_Charging_Adjusted_Penalty>
0.222212

> <i_epik_Tot_Q>
0

> <i_epik_Tot_abs_Q>
0

> <s_lp_Force_Field>
S-OPLS

> <r_lp_Energy>
72.051

> <b_lp_Chiralities_Consistent>
1

> <s_lp_Variant>
ligprep_h3d.sdf:2404-1

> <ROCS_ShapeQuery>
_7L13

> <ROCS_TanimotoCombo>
0.785 

> <ROCS_ShapeTanimoto>
0.654 

> <ROCS_ColorTanimoto>
0.130 

> <ROCS_RefTversky>
0.800 

> <ROCS_RefColorTversky>
0.231 

> <ROCS_RefTverskyCombo>
1.031 

> <ROCS_FitTversky>
0.782 

> <ROCS_FitColorTversky>
0.230 

> <ROCS_FitTverskyCombo>
1.012 

> <ROCS_ColorScore>
-2.079

> <ROCS_Overlap>
1330.650

> <ROCS_Rank>
208                 

$$$$
ligprep_h3d.sdf:5352_1967
  -OEChem-08212117123D

 71 75  0     0  0  0  0  0  0999 V2000
  -20.6742   -7.2755  -34.3526 C   0  0  0  0  0  0  0  0  0  0  0  0
  -19.2589   -5.4082  -33.7633 C   0  0  0  0  0  0  0  0  0  0  0  0
  -20.1214   -7.2904  -35.6332 C   0  0  0  0  0  0  0  0  0  0  0  0
  -18.7061   -5.4231  -35.0438 C   0  0  0  0  0  0  0  0  0  0  0  0
  -18.2617   -6.1198  -27.0782 C   0  0  0  0  0  0  0  0  0  0  0  0
  -18.2349   -4.5202  -25.2823 C   0  0  0  0  0  0  0  0  0  0  0  0
  -23.1370   -4.2844  -28.7892 C   0  0  0  0  0  0  0  0  0  0  0  0
  -20.4154   -4.8823  -29.1929 C   0  0  0  0  0  0  0  0  0  0  0  0
  -16.9764   -6.4789  -26.7055 C   0  0  0  0  0  0  0  0  0  0  0  0
  -16.9509   -4.9511  -24.9899 C   0  0  0  0  0  0  0  0  0  0  0  0
  -22.2555   -4.3718  -27.7183 C   0  0  0  0  0  0  0  0  0  0  0  0
  -20.2430   -6.3344  -33.4177 C   0  0  0  0  0  0  0  0  0  0  0  0
  -18.8960   -5.1210  -26.3479 C   0  0  0  0  0  0  0  0  0  0  0  0
  -20.9016   -4.6861  -27.9062 C   0  0  0  0  0  0  0  0  0  0  0  0
  -22.6470   -4.4959  -30.0763 C   0  0  0  0  0  0  0  0  0  0  0  0
  -21.2936   -4.7887  -30.2770 C   0  0  0  0  0  0  0  0  0  0  0  0
  -19.1373   -6.3642  -35.9788 C   0  0  0  0  0  0  0  0  0  0  0  0
  -25.6572   -3.9203  -23.3698 C   0  0  0  0  0  0  0  0  0  0  0  0
  -23.3574   -2.9304  -25.9354 C   0  0  0  0  0  0  0  0  0  0  0  0
  -23.2888   -5.4469  -25.7058 C   0  0  0  0  0  0  0  0  0  0  0  0
  -23.7200   -2.8355  -24.4553 C   0  0  0  0  0  0  0  0  0  0  0  0
  -23.7106   -5.3006  -24.2418 C   0  0  0  0  0  0  0  0  0  0  0  0
  -21.0930   -4.1059  -25.6895 C   0  0  0  0  0  0  0  0  0  0  0  0
  -22.5488   -4.2036  -26.2478 C   0  0  0  0  0  0  0  0  0  0  0  0
  -24.8389   -3.7586  -20.5397 C   0  0  0  0  0  0  0  0  0  0  0  0
  -25.3223   -6.1886  -20.2907 C   0  0  0  0  0  0  0  0  0  0  0  0
  -23.6525   -3.1392  -31.7509 C   0  0  0  0  0  0  0  0  0  0  0  0
  -20.8367   -6.3184  -32.0397 C   0  0  0  0  0  0  0  0  0  0  0  0
  -26.0025   -4.9902  -22.3648 C   0  0  0  0  0  0  0  0  0  0  0  0
  -16.3023   -5.9183  -25.6765 N   0  0  0  0  0  0  0  0  0  0  0  0
  -20.1930   -4.7217  -26.6839 N   0  0  0  0  0  0  0  0  0  0  0  0
  -24.4244   -4.0396  -24.0127 N   0  0  0  0  0  0  0  0  0  0  0  0
  -25.0215   -5.0725  -21.2658 N   0  3  0  0  0  0  0  0  0  0  0  0
  -26.4614   -3.0081  -23.5778 O   0  0  0  0  0  0  0  0  0  0  0  0
  -23.4996   -4.4171  -31.1368 O   0  0  0  0  0  0  0  0  0  0  0  0
  -20.8130   -4.9841  -31.5384 O   0  0  0  0  0  0  0  0  0  0  0  0
  -18.6045   -6.3801  -37.2076 F   0  0  0  0  0  0  0  0  0  0  0  0
  -21.4410   -8.0007  -34.0929 H   0  0  0  0  0  0  0  0  0  0  0  0
  -18.9165   -4.6714  -33.0414 H   0  0  0  0  0  0  0  0  0  0  0  0
  -20.4564   -8.0234  -36.3609 H   0  0  0  0  0  0  0  0  0  0  0  0
  -17.9403   -4.7019  -35.3134 H   0  0  0  0  0  0  0  0  0  0  0  0
  -18.7496   -6.6086  -27.9148 H   0  0  0  0  0  0  0  0  0  0  0  0
  -18.7007   -3.7382  -24.6920 H   0  0  0  0  0  0  0  0  0  0  0  0
  -24.1851   -4.0512  -28.6316 H   0  0  0  0  0  0  0  0  0  0  0  0
  -19.3645   -5.1002  -29.3612 H   0  0  0  0  0  0  0  0  0  0  0  0
  -16.4383   -7.2529  -27.2429 H   0  0  0  0  0  0  0  0  0  0  0  0
  -16.3923   -4.5150  -24.1682 H   0  0  0  0  0  0  0  0  0  0  0  0
  -24.2850   -2.9279  -26.5170 H   0  0  0  0  0  0  0  0  0  0  0  0
  -22.8030   -2.0344  -26.2287 H   0  0  0  0  0  0  0  0  0  0  0  0
  -22.6651   -6.3477  -25.8184 H   0  0  0  0  0  0  0  0  0  0  0  0
  -24.1932   -5.6412  -26.3046 H   0  0  0  0  0  0  0  0  0  0  0  0
  -22.8216   -2.7450  -23.8379 H   0  0  0  0  0  0  0  0  0  0  0  0
  -24.3094   -1.9335  -24.2921 H   0  0  0  0  0  0  0  0  0  0  0  0
  -24.3330   -6.1561  -23.9547 H   0  0  0  0  0  0  0  0  0  0  0  0
  -22.8348   -5.3063  -23.5803 H   0  0  0  0  0  0  0  0  0  0  0  0
  -20.7912   -3.0728  -25.4843 H   0  0  0  0  0  0  0  0  0  0  0  0
  -21.0029   -4.6649  -24.7472 H   0  0  0  0  0  0  0  0  0  0  0  0
  -25.7979   -3.4868  -20.0950 H   0  0  0  0  0  0  0  0  0  0  0  0
  -24.0771   -3.9044  -19.7716 H   0  0  0  0  0  0  0  0  0  0  0  0
  -24.5207   -3.0138  -21.2717 H   0  0  0  0  0  0  0  0  0  0  0  0
  -26.2948   -5.9843  -19.8390 H   0  0  0  0  0  0  0  0  0  0  0  0
  -25.3384   -7.1258  -20.8502 H   0  0  0  0  0  0  0  0  0  0  0  0
  -24.5330   -6.1951  -19.5365 H   0  0  0  0  0  0  0  0  0  0  0  0
  -24.3585   -3.2155  -32.5815 H   0  0  0  0  0  0  0  0  0  0  0  0
  -22.6826   -2.7900  -32.1139 H   0  0  0  0  0  0  0  0  0  0  0  0
  -24.0383   -2.4334  -31.0115 H   0  0  0  0  0  0  0  0  0  0  0  0
  -21.8719   -6.6758  -32.0550 H   0  0  0  0  0  0  0  0  0  0  0  0
  -20.2670   -6.9660  -31.3646 H   0  0  0  0  0  0  0  0  0  0  0  0
  -26.0188   -5.9572  -22.8583 H   0  0  0  0  0  0  0  0  0  0  0  0
  -26.9712   -4.7732  -21.9255 H   0  0  0  0  0  0  0  0  0  0  0  0
  -24.0953   -5.2986  -21.6737 H   0  0  0  0  0  0  0  0  0  0  0  0
  1  3  1  0  0  0  0
  1 12  2  0  0  0  0
  2  4  2  0  0  0  0
  2 12  1  0  0  0  0
  3 17  2  0  0  0  0
  4 17  1  0  0  0  0
  5  9  1  0  0  0  0
  5 13  2  0  0  0  0
  6 10  2  0  0  0  0
  6 13  1  0  0  0  0
  7 11  1  0  0  0  0
  7 15  2  0  0  0  0
  8 14  1  0  0  0  0
  8 16  2  0  0  0  0
  9 30  2  0  0  0  0
 10 30  1  0  0  0  0
 11 14  2  0  0  0  0
 11 24  1  0  0  0  0
 12 28  1  0  0  0  0
 13 31  1  0  0  0  0
 14 31  1  0  0  0  0
 15 16  1  0  0  0  0
 15 35  1  0  0  0  0
 16 36  1  0  0  0  0
 17 37  1  0  0  0  0
 18 29  1  0  0  0  0
 18 32  1  0  0  0  0
 18 34  2  0  0  0  0
 19 21  1  0  0  0  0
 19 24  1  0  0  0  0
 20 22  1  0  0  0  0
 20 24  1  0  0  0  0
 21 32  1  0  0  0  0
 22 32  1  0  0  0  0
 23 24  1  0  0  0  0
 23 31  1  0  0  0  0
 25 33  1  0  0  0  0
 26 33  1  0  0  0  0
 27 35  1  0  0  0  0
 28 36  1  0  0  0  0
 29 33  1  0  0  0  0
  1 38  1  0  0  0  0
  2 39  1  0  0  0  0
  3 40  1  0  0  0  0
  4 41  1  0  0  0  0
  5 42  1  0  0  0  0
  6 43  1  0  0  0  0
  7 44  1  0  0  0  0
  8 45  1  0  0  0  0
  9 46  1  0  0  0  0
 10 47  1  0  0  0  0
 19 48  1  0  0  0  0
 19 49  1  0  0  0  0
 20 50  1  0  0  0  0
 20 51  1  0  0  0  0
 21 52  1  0  0  0  0
 21 53  1  0  0  0  0
 22 54  1  0  0  0  0
 22 55  1  0  0  0  0
 23 56  1  0  0  0  0
 23 57  1  0  0  0  0
 25 58  1  0  0  0  0
 25 59  1  0  0  0  0
 25 60  1  0  0  0  0
 26 61  1  0  0  0  0
 26 62  1  0  0  0  0
 26 63  1  0  0  0  0
 27 64  1  0  0  0  0
 27 65  1  0  0  0  0
 27 66  1  0  0  0  0
 28 67  1  0  0  0  0
 28 68  1  0  0  0  0
 29 69  1  0  0  0  0
 29 70  1  0  0  0  0
 33 71  1  0  0  0  0
M  CHG  1  33   1
M  END
> <SMILES>
COc1cc2c(cc1OCc1ccc(cc1)F)N(CC12CCN(CC1)C(=O)CN(C)C)c1ccncc1

> <FORMATTED_ID>
H3D-014997

> <MOLFORMULA>
C29H33FN4O3

> <Exact Mass>
504.25

> <XLogP>
4.73

> <TPSA_NOPS>
58.1

> <s_m_source_file>
ligprep_h3d.sdf

> <i_m_source_file_index>
5352

> <i_lp_mmshare_version>
55123

> <i_f3d_flags>
0

> <s_epik_input>
W2NIXTFbY0hdYyhGKVtjSF1bY0hdYzFbQ0gyXU9jKGMoW2NIXTIpT1tDSDNdKVtjSF1jKE4oW0NIMl0zKWM0W2NIXVtjSF1uW2NIXVtjSF00KWMyQzM1W0NIMl1bQ0gyXU4oW0NIMl1bQ0gyXTUpQyg9TylbQ0gyXU4oW0NIM10pW0NIM10=

> <s_epik_cmdline>
J2VwaWtfcHl0aG9uJywgJy1waHQnLCAnMC41JywgJy1waCcsICc3LjUnLCAnLXRuJywgJzgnLCAnLW1hJywgJzUwMCcsICctaW1hZScsICc8aW5maWxlLm1hZT4nLCAnLW9tYWUnLCAnPG91dGZpbGUubWFlPic=

> <r_lp_tautomer_probability>
1

> <r_epik_Ionization_Penalty>
0.261077

> <r_epik_Ionization_Penalty_Charging>
0.106153

> <r_epik_Ionization_Penalty_Neutral>
0.154924

> <r_epik_State_Penalty>
0.240952

> <r_epik_Charging_Adjusted_Penalty>
0.347105

> <i_epik_Tot_Q>
1

> <i_epik_Tot_abs_Q>
1

> <s_lp_Force_Field>
S-OPLS

> <r_lp_Energy>
72.3353

> <b_lp_Chiralities_Consistent>
1

> <s_lp_Variant>
ligprep_h3d.sdf:5352-1

> <ROCS_ShapeQuery>
_7L13

> <ROCS_TanimotoCombo>
0.719 

> <ROCS_ShapeTanimoto>
0.659 

> <ROCS_ColorTanimoto>
0.060 

> <ROCS_RefTversky>
0.800 

> <ROCS_RefColorTversky>
0.125 

> <ROCS_RefTverskyCombo>
0.925 

> <ROCS_FitTversky>
0.789 

> <ROCS_FitColorTversky>
0.104 

> <ROCS_FitTverskyCombo>
0.893 

> <ROCS_ColorScore>
-1.134

> <ROCS_Overlap>
1329.843

> <ROCS_Rank>
209                 

$$$$
ligprep_h3d.sdf:5424_1614
  -OEChem-08212117123D

 73 79  0     0  0  0  0  0  0999 V2000
  -21.2156   -4.9429  -34.6684 C   0  0  0  0  0  0  0  0  0  0  0  0
  -20.4216   -6.6555  -33.1606 C   0  0  0  0  0  0  0  0  0  0  0  0
  -20.5380   -5.5563  -35.7221 C   0  0  0  0  0  0  0  0  0  0  0  0
  -19.7440   -7.2690  -34.2143 C   0  0  0  0  0  0  0  0  0  0  0  0
  -25.1934   -3.1660  -22.3992 C   0  0  0  0  0  0  0  0  0  0  0  0
  -15.5698   -5.6012  -23.5962 C   0  0  0  0  0  0  0  0  0  0  0  0
  -15.3790   -7.0172  -25.5357 C   0  0  0  0  0  0  0  0  0  0  0  0
  -25.3105   -5.3233  -25.2820 C   0  0  0  0  0  0  0  0  0  0  0  0
  -19.0760   -4.4923  -28.5797 C   0  0  0  0  0  0  0  0  0  0  0  0
  -21.7483   -4.1224  -29.3783 C   0  0  0  0  0  0  0  0  0  0  0  0
  -26.0974   -3.7849  -21.5500 C   0  0  0  0  0  0  0  0  0  0  0  0
  -26.6120   -5.5047  -23.0377 C   0  0  0  0  0  0  0  0  0  0  0  0
  -14.3115   -6.0294  -23.1977 C   0  0  0  0  0  0  0  0  0  0  0  0
  -14.1255   -7.4095  -25.0882 C   0  0  0  0  0  0  0  0  0  0  0  0
  -25.7217   -4.9619  -23.9694 C   0  0  0  0  0  0  0  0  0  0  0  0
  -20.0962   -4.5179  -27.6356 C   0  0  0  0  0  0  0  0  0  0  0  0
  -21.1573   -5.4924  -33.3877 C   0  0  0  0  0  0  0  0  0  0  0  0
  -25.0293   -3.7993  -23.6276 C   0  0  0  0  0  0  0  0  0  0  0  0
  -16.1053   -6.1030  -24.7785 C   0  0  0  0  0  0  0  0  0  0  0  0
  -21.4244   -4.3313  -28.0430 C   0  0  0  0  0  0  0  0  0  0  0  0
  -19.3910   -4.2765  -29.9230 C   0  0  0  0  0  0  0  0  0  0  0  0
  -20.7189   -4.0940  -30.3196 C   0  0  0  0  0  0  0  0  0  0  0  0
  -19.8022   -6.7194  -35.4950 C   0  0  0  0  0  0  0  0  0  0  0  0
  -24.3924   -4.3894  -25.7044 C   0  0  0  0  0  0  0  0  0  0  0  0
  -23.6788   -4.3275  -26.9895 C   0  0  0  0  0  0  0  0  0  0  0  0
  -19.0390   -3.8647  -25.3770 C   0  0  0  0  0  0  0  0  0  0  0  0
  -19.6863   -6.2618  -25.8382 C   0  0  0  0  0  0  0  0  0  0  0  0
  -17.5639   -4.2577  -25.4571 C   0  0  0  0  0  0  0  0  0  0  0  0
  -18.2068   -6.6209  -25.9704 C   0  0  0  0  0  0  0  0  0  0  0  0
  -21.4684   -4.4699  -25.7148 C   0  0  0  0  0  0  0  0  0  0  0  0
  -20.0042   -4.7855  -26.1443 C   0  0  0  0  0  0  0  0  0  0  0  0
  -17.0585   -4.4436  -30.3617 C   0  0  0  0  0  0  0  0  0  0  0  0
  -21.8867   -4.8335  -32.2540 C   0  0  0  0  0  0  0  0  0  0  0  0
  -26.7925   -4.9105  -21.8336 N   0  0  0  0  0  0  0  0  0  0  0  0
  -24.2292   -3.4739  -24.6993 N   0  0  0  0  0  0  0  0  0  0  0  0
  -13.6337   -6.9106  -23.9459 N   0  3  0  0  0  0  0  0  0  0  0  0
  -22.2916   -4.3796  -26.9350 N   0  0  0  0  0  0  0  0  0  0  0  0
  -17.3753   -5.6901  -25.2047 N   0  0  0  0  0  0  0  0  0  0  0  0
  -24.3837   -4.2523  -27.9923 O   0  0  0  0  0  0  0  0  0  0  0  0
  -18.3859   -4.2494  -30.8448 O   0  0  0  0  0  0  0  0  0  0  0  0
  -21.0217   -3.8862  -31.6323 O   0  0  0  0  0  0  0  0  0  0  0  0
  -19.1537   -7.3101  -36.5073 F   0  0  0  0  0  0  0  0  0  0  0  0
  -21.7856   -4.0365  -34.8549 H   0  0  0  0  0  0  0  0  0  0  0  0
  -20.3708   -7.0911  -32.1662 H   0  0  0  0  0  0  0  0  0  0  0  0
  -20.5837   -5.1290  -36.7192 H   0  0  0  0  0  0  0  0  0  0  0  0
  -19.1707   -8.1743  -34.0378 H   0  0  0  0  0  0  0  0  0  0  0  0
  -24.6603   -2.2642  -22.1283 H   0  0  0  0  0  0  0  0  0  0  0  0
  -16.1181   -4.8879  -22.9885 H   0  0  0  0  0  0  0  0  0  0  0  0
  -15.7767   -7.4234  -26.4606 H   0  0  0  0  0  0  0  0  0  0  0  0
  -25.6514   -6.1765  -25.8538 H   0  0  0  0  0  0  0  0  0  0  0  0
  -18.0401   -4.6426  -28.2805 H   0  0  0  0  0  0  0  0  0  0  0  0
  -22.7694   -3.9783  -29.7114 H   0  0  0  0  0  0  0  0  0  0  0  0
  -26.2955   -3.3664  -20.5675 H   0  0  0  0  0  0  0  0  0  0  0  0
  -27.1895   -6.4027  -23.2220 H   0  0  0  0  0  0  0  0  0  0  0  0
  -13.8192   -5.6952  -22.2951 H   0  0  0  0  0  0  0  0  0  0  0  0
  -13.4917   -8.1130  -25.6106 H   0  0  0  0  0  0  0  0  0  0  0  0
  -19.3366   -3.8010  -24.3094 H   0  0  0  0  0  0  0  0  0  0  0  0
  -19.1367   -2.8232  -25.7492 H   0  0  0  0  0  0  0  0  0  0  0  0
  -20.2600   -6.9161  -26.5177 H   0  0  0  0  0  0  0  0  0  0  0  0
  -20.0319   -6.5277  -24.8246 H   0  0  0  0  0  0  0  0  0  0  0  0
  -17.1892   -3.9985  -26.4594 H   0  0  0  0  0  0  0  0  0  0  0  0
  -16.9732   -3.6718  -24.7362 H   0  0  0  0  0  0  0  0  0  0  0  0
  -18.0304   -7.6474  -25.6255 H   0  0  0  0  0  0  0  0  0  0  0  0
  -17.9334   -6.5853  -27.0330 H   0  0  0  0  0  0  0  0  0  0  0  0
  -21.8958   -5.2427  -25.0659 H   0  0  0  0  0  0  0  0  0  0  0  0
  -21.5509   -3.5108  -25.1891 H   0  0  0  0  0  0  0  0  0  0  0  0
  -16.3556   -4.3988  -31.1972 H   0  0  0  0  0  0  0  0  0  0  0  0
  -16.9890   -5.4146  -29.8649 H   0  0  0  0  0  0  0  0  0  0  0  0
  -16.8213   -3.6527  -29.6462 H   0  0  0  0  0  0  0  0  0  0  0  0
  -22.7834   -4.3168  -32.6126 H   0  0  0  0  0  0  0  0  0  0  0  0
  -22.2001   -5.5752  -31.5114 H   0  0  0  0  0  0  0  0  0  0  0  0
  -23.6114   -2.6745  -24.7346 H   0  0  0  0  0  0  0  0  0  0  0  0
  -12.7109   -7.2127  -23.6347 H   0  0  0  0  0  0  0  0  0  0  0  0
  1  3  1  0  0  0  0
  1 17  2  0  0  0  0
  2  4  2  0  0  0  0
  2 17  1  0  0  0  0
  3 23  2  0  0  0  0
  4 23  1  0  0  0  0
  5 11  1  0  0  0  0
  5 18  2  0  0  0  0
  6 13  1  0  0  0  0
  6 19  2  0  0  0  0
  7 14  2  0  0  0  0
  7 19  1  0  0  0  0
  8 15  1  0  0  0  0
  8 24  2  0  0  0  0
  9 16  1  0  0  0  0
  9 21  2  0  0  0  0
 10 20  1  0  0  0  0
 10 22  2  0  0  0  0
 11 34  2  0  0  0  0
 12 15  2  0  0  0  0
 12 34  1  0  0  0  0
 13 36  2  0  0  0  0
 14 36  1  0  0  0  0
 15 18  1  0  0  0  0
 16 20  2  0  0  0  0
 16 31  1  0  0  0  0
 17 33  1  0  0  0  0
 18 35  1  0  0  0  0
 19 38  1  0  0  0  0
 20 37  1  0  0  0  0
 21 22  1  0  0  0  0
 21 40  1  0  0  0  0
 22 41  1  0  0  0  0
 23 42  1  0  0  0  0
 24 25  1  0  0  0  0
 24 35  1  0  0  0  0
 25 37  1  0  0  0  0
 25 39  2  0  0  0  0
 26 28  1  0  0  0  0
 26 31  1  0  0  0  0
 27 29  1  0  0  0  0
 27 31  1  0  0  0  0
 28 38  1  0  0  0  0
 29 38  1  0  0  0  0
 30 31  1  0  0  0  0
 30 37  1  0  0  0  0
 32 40  1  0  0  0  0
 33 41  1  0  0  0  0
  1 43  1  0  0  0  0
  2 44  1  0  0  0  0
  3 45  1  0  0  0  0
  4 46  1  0  0  0  0
  5 47  1  0  0  0  0
  6 48  1  0  0  0  0
  7 49  1  0  0  0  0
  8 50  1  0  0  0  0
  9 51  1  0  0  0  0
 10 52  1  0  0  0  0
 11 53  1  0  0  0  0
 12 54  1  0  0  0  0
 13 55  1  0  0  0  0
 14 56  1  0  0  0  0
 26 57  1  0  0  0  0
 26 58  1  0  0  0  0
 27 59  1  0  0  0  0
 27 60  1  0  0  0  0
 28 61  1  0  0  0  0
 28 62  1  0  0  0  0
 29 63  1  0  0  0  0
 29 64  1  0  0  0  0
 30 65  1  0  0  0  0
 30 66  1  0  0  0  0
 32 67  1  0  0  0  0
 32 68  1  0  0  0  0
 32 69  1  0  0  0  0
 33 70  1  0  0  0  0
 33 71  1  0  0  0  0
 35 72  1  0  0  0  0
 36 73  1  0  0  0  0
M  CHG  1  36   1
M  END
> <SMILES>
COc1cc2c(cc1OCc1ccc(cc1)F)N(CC12CCN(CC1)c1ccncc1)C(=O)c1cc2cnccc2[nH]1

> <FORMATTED_ID>
H3D-015668

> <MOLFORMULA>
C33H30FN5O3

> <Exact Mass>
563.23

> <XLogP>
5.6

> <TPSA_NOPS>
83.6

> <s_m_source_file>
ligprep_h3d.sdf

> <i_m_source_file_index>
5424

> <i_lp_mmshare_version>
55123

> <i_f3d_flags>
0

> <s_epik_input>
W2NIXTFbY0hdYyhGKVtjSF1bY0hdYzFbQ0gyXU9jKGMoW2NIXTIpT1tDSDNdKVtjSF1jKE4oW0NIMl0zKUMoPU8pYyhbY0hdNClbbkhdYyhjNDUpW2NIXVtjSF1uW2NIXTUpYzJDMzZbQ0gyXVtDSDJdTihbQ0gyXVtDSDJdNiljN1tjSF1bY0hdbltjSF1bY0hdNw==

> <s_epik_cmdline>
J2VwaWtfcHl0aG9uJywgJy1waHQnLCAnMC41JywgJy1waCcsICc3LjUnLCAnLXRuJywgJzgnLCAnLW1hJywgJzUwMCcsICctaW1hZScsICc8aW5maWxlLm1hZT4nLCAnLW9tYWUnLCAnPG91dGZpbGUubWFlPic=

> <r_lp_tautomer_probability>
0.999931

> <r_epik_Ionization_Penalty>
0.666323

> <r_epik_Ionization_Penalty_Charging>
0.00596667

> <r_epik_Ionization_Penalty_Neutral>
0.660357

> <r_epik_State_Penalty>
0.679653

> <r_epik_Charging_Adjusted_Penalty>
0.68562

> <i_epik_Tot_Q>
1

> <i_epik_Tot_abs_Q>
1

> <s_lp_Force_Field>
S-OPLS

> <r_lp_Energy>
93.7364

> <b_lp_Chiralities_Consistent>
1

> <s_lp_Variant>
ligprep_h3d.sdf:5424-2

> <ROCS_ShapeQuery>
_7L13

> <ROCS_TanimotoCombo>
0.695 

> <ROCS_ShapeTanimoto>
0.584 

> <ROCS_ColorTanimoto>
0.111 

> <ROCS_RefTversky>
0.800 

> <ROCS_RefColorTversky>
0.248 

> <ROCS_RefTverskyCombo>
1.048 

> <ROCS_FitTversky>
0.684 

> <ROCS_FitColorTversky>
0.167 

> <ROCS_FitTverskyCombo>
0.851 

> <ROCS_ColorScore>
-2.297

> <ROCS_Overlap>
1340.997

> <ROCS_Rank>
210                 

$$$$
ligprep_h3d.sdf:1184_1794
  -OEChem-08212117123D

 74 78  0     1  0  0  0  0  0999 V2000
  -20.0641   -4.0878  -32.4232 C   0  0  0  0  0  0  0  0  0  0  0  0
  -20.4008   -6.4501  -32.0449 C   0  0  0  0  0  0  0  0  0  0  0  0
  -19.5398   -4.3647  -33.6857 C   0  0  0  0  0  0  0  0  0  0  0  0
  -19.8766   -6.7270  -33.3074 C   0  0  0  0  0  0  0  0  0  0  0  0
  -16.5815   -5.5252  -26.6579 C   0  0  0  0  0  0  0  0  0  0  0  0
  -22.9405   -4.3461  -28.8839 C   0  0  0  0  0  0  0  0  0  0  0  0
  -20.5061   -4.1543  -25.5213 C   0  0  0  0  0  0  0  0  0  0  0  0
  -16.5335   -4.1355  -26.8771 C   0  0  0  0  0  0  0  0  0  0  0  0
  -20.7528   -4.5005  -27.9012 C   0  0  0  0  0  0  0  0  0  0  0  0
  -20.4946   -5.1305  -31.6027 C   0  0  0  0  0  0  0  0  0  0  0  0
  -21.0407   -4.8419  -30.2870 C   0  0  0  0  0  0  0  0  0  0  0  0
  -19.4460   -5.6843  -34.1279 C   0  0  0  0  0  0  0  0  0  0  0  0
  -22.4055   -4.6244  -30.1441 C   0  0  0  0  0  0  0  0  0  0  0  0
  -20.2143   -4.7804  -29.1687 C   0  0  0  0  0  0  0  0  0  0  0  0
  -22.1375   -4.2788  -27.7486 C   0  0  0  0  0  0  0  0  0  0  0  0
  -19.9440   -4.4326  -26.7588 C   0  0  0  0  0  0  0  0  0  0  0  0
  -21.8704   -3.9519  -25.4711 C   0  0  0  0  0  0  0  0  0  0  0  0
  -17.9220   -5.8151  -26.5841 C   0  0  0  0  0  0  0  0  0  0  0  0
  -19.5724   -8.0031  -36.8156 C   0  0  0  0  0  0  0  0  0  0  0  0
  -22.5226   -3.6579  -24.2067 C   0  0  0  0  0  0  0  0  0  0  0  0
  -21.1636   -6.3533  -36.4803 C   0  0  0  0  0  0  0  0  0  0  0  0
  -21.6403   -7.3382  -37.5188 C   0  0  0  0  0  0  0  0  0  0  0  0
  -23.3380   -4.6774  -31.3124 C   0  0  0  0  0  0  0  0  0  0  0  0
  -18.7497   -5.0263  -29.4005 C   0  0  0  0  0  0  0  0  0  0  0  0
  -18.6157   -7.1000  -26.3680 C   0  0  0  0  0  0  0  0  0  0  0  0
  -18.4477   -4.7220  -36.2420 C   0  0  0  0  0  0  0  0  0  0  0  0
  -26.2134   -6.9614  -22.6236 C   0  0  0  0  0  0  0  0  0  0  0  0
  -24.6965   -3.1431  -23.0664 C   0  0  0  0  0  0  0  0  0  0  0  0
  -25.2038   -4.3848  -22.3586 C   0  0  0  0  0  0  0  0  0  0  0  0
  -18.8852   -5.9804  -35.4777 C   0  0  2  0  0  0  0  0  0  0  0  0
  -17.7471   -3.5810  -26.9387 N   0  0  0  0  0  0  0  0  0  0  0  0
  -22.6859   -4.0084  -26.5490 N   0  0  0  0  0  0  0  0  0  0  0  0
  -18.5702   -4.6277  -26.7572 N   0  0  0  0  0  0  0  0  0  0  0  0
  -19.8014   -6.7502  -36.2906 N   0  0  0  0  0  0  0  0  0  0  0  0
  -23.9094   -3.4648  -24.2351 N   0  0  0  0  0  0  0  0  0  0  0  0
  -18.5532   -8.6747  -36.7340 O   0  0  0  0  0  0  0  0  0  0  0  0
  -21.8582   -3.5652  -23.1584 O   0  0  0  0  0  0  0  0  0  0  0  0
  -27.6206   -4.8468  -23.2409 O   0  0  0  0  0  0  0  0  0  0  0  0
  -25.6528   -5.4684  -24.6945 O   0  0  0  0  0  0  0  0  0  0  0  0
  -20.7060   -8.4288  -37.4649 O   0  0  0  0  0  0  0  0  0  0  0  0
  -26.2665   -5.3542  -23.3826 S   0  0  0  0  0  0  0  0  0  0  0  0
  -20.1300   -3.0539  -32.0925 H   0  0  0  0  0  0  0  0  0  0  0  0
  -20.7328   -7.2737  -31.4172 H   0  0  0  0  0  0  0  0  0  0  0  0
  -19.2058   -3.5461  -34.3177 H   0  0  0  0  0  0  0  0  0  0  0  0
  -19.8077   -7.7581  -33.6442 H   0  0  0  0  0  0  0  0  0  0  0  0
  -15.7578   -6.2182  -26.5668 H   0  0  0  0  0  0  0  0  0  0  0  0
  -24.0125   -4.1778  -28.7866 H   0  0  0  0  0  0  0  0  0  0  0  0
  -19.9020   -4.0959  -24.6201 H   0  0  0  0  0  0  0  0  0  0  0  0
  -15.6647   -3.5038  -26.9946 H   0  0  0  0  0  0  0  0  0  0  0  0
  -21.2387   -5.3145  -36.8142 H   0  0  0  0  0  0  0  0  0  0  0  0
  -21.6955   -6.4759  -35.5309 H   0  0  0  0  0  0  0  0  0  0  0  0
  -22.6452   -7.7116  -37.3024 H   0  0  0  0  0  0  0  0  0  0  0  0
  -21.6197   -6.9189  -38.5299 H   0  0  0  0  0  0  0  0  0  0  0  0
  -23.4291   -3.6855  -31.7680 H   0  0  0  0  0  0  0  0  0  0  0  0
  -22.9786   -5.3815  -32.0718 H   0  0  0  0  0  0  0  0  0  0  0  0
  -24.3345   -5.0165  -31.0061 H   0  0  0  0  0  0  0  0  0  0  0  0
  -18.5322   -6.0922  -29.2964 H   0  0  0  0  0  0  0  0  0  0  0  0
  -18.4560   -4.6976  -30.4012 H   0  0  0  0  0  0  0  0  0  0  0  0
  -18.1451   -4.4662  -28.6816 H   0  0  0  0  0  0  0  0  0  0  0  0
  -18.7809   -7.2865  -25.2942 H   0  0  0  0  0  0  0  0  0  0  0  0
  -19.5987   -7.1288  -26.8684 H   0  0  0  0  0  0  0  0  0  0  0  0
  -18.0431   -7.9524  -26.7721 H   0  0  0  0  0  0  0  0  0  0  0  0
  -19.2907   -4.0340  -36.3692 H   0  0  0  0  0  0  0  0  0  0  0  0
  -17.6524   -4.1893  -35.7085 H   0  0  0  0  0  0  0  0  0  0  0  0
  -18.0591   -4.9679  -37.2367 H   0  0  0  0  0  0  0  0  0  0  0  0
  -26.8508   -7.6350  -23.1985 H   0  0  0  0  0  0  0  0  0  0  0  0
  -25.1803   -7.3122  -22.6321 H   0  0  0  0  0  0  0  0  0  0  0  0
  -26.5782   -6.8706  -21.5994 H   0  0  0  0  0  0  0  0  0  0  0  0
  -25.5208   -2.5001  -23.3902 H   0  0  0  0  0  0  0  0  0  0  0  0
  -24.0511   -2.5659  -22.3974 H   0  0  0  0  0  0  0  0  0  0  0  0
  -25.7946   -4.1079  -21.4803 H   0  0  0  0  0  0  0  0  0  0  0  0
  -24.3834   -5.0356  -22.0414 H   0  0  0  0  0  0  0  0  0  0  0  0
  -17.9919   -6.6233  -35.3871 H   0  0  0  0  0  0  0  0  0  0  0  0
  -24.3946   -3.4891  -25.1260 H   0  0  0  0  0  0  0  0  0  0  0  0
  1  3  1  0  0  0  0
  1 10  2  0  0  0  0
  2  4  2  0  0  0  0
  2 10  1  0  0  0  0
  3 12  2  0  0  0  0
  4 12  1  0  0  0  0
  5  8  1  0  0  0  0
  5 18  2  0  0  0  0
  6 13  1  0  0  0  0
  6 15  2  0  0  0  0
  7 16  2  0  0  0  0
  7 17  1  0  0  0  0
  8 31  2  0  0  0  0
  9 14  2  0  0  0  0
  9 15  1  0  0  0  0
  9 16  1  0  0  0  0
 10 11  1  0  0  0  0
 11 13  2  0  0  0  0
 11 14  1  0  0  0  0
 12 30  1  0  0  0  0
 13 23  1  0  0  0  0
 14 24  1  0  0  0  0
 15 32  1  0  0  0  0
 16 33  1  0  0  0  0
 17 20  1  0  0  0  0
 17 32  2  0  0  0  0
 18 25  1  0  0  0  0
 18 33  1  0  0  0  0
 19 34  1  0  0  0  0
 19 36  2  0  0  0  0
 19 40  1  0  0  0  0
 20 35  1  0  0  0  0
 20 37  2  0  0  0  0
 21 22  1  0  0  0  0
 21 34  1  0  0  0  0
 22 40  1  0  0  0  0
 26 30  1  0  0  0  0
 27 41  1  0  0  0  0
 28 29  1  0  0  0  0
 28 35  1  0  0  0  0
 29 41  1  0  0  0  0
 30 34  1  0  0  0  0
 31 33  1  0  0  0  0
 38 41  2  0  0  0  0
 39 41  2  0  0  0  0
  1 42  1  0  0  0  0
  2 43  1  0  0  0  0
  3 44  1  0  0  0  0
  4 45  1  0  0  0  0
  5 46  1  0  0  0  0
  6 47  1  0  0  0  0
  7 48  1  0  0  0  0
  8 49  1  0  0  0  0
 21 50  1  0  0  0  0
 21 51  1  0  0  0  0
 22 52  1  0  0  0  0
 22 53  1  0  0  0  0
 23 54  1  0  0  0  0
 23 55  1  0  0  0  0
 23 56  1  0  0  0  0
 24 57  1  0  0  0  0
 24 58  1  0  0  0  0
 24 59  1  0  0  0  0
 25 60  1  0  0  0  0
 25 61  1  0  0  0  0
 25 62  1  0  0  0  0
 26 63  1  0  0  0  0
 26 64  1  0  0  0  0
 26 65  1  0  0  0  0
 27 66  1  0  0  0  0
 27 67  1  0  0  0  0
 27 68  1  0  0  0  0
 28 69  1  0  0  0  0
 28 70  1  0  0  0  0
 29 71  1  0  0  0  0
 29 72  1  0  0  0  0
 30 73  1  0  0  0  0
 35 74  1  0  0  0  0
M  END
> <SMILES>
C[C@H](N1CCOC1=O)c1ccc(cc1)-c1c(cc2nc(cc(c2c1C)-n1nccc1C)C(=O)NCCS(=O)(=O)C)C

> <FORMATTED_ID>
H3D-008219

> <MOLFORMULA>
C30H33N5O5S

> <Exact Mass>
575.22

> <XLogP>
3.72

> <TPSA_NOPS>
131.9

> <s_m_source_file>
ligprep_h3d.sdf

> <i_m_source_file_index>
1184

> <i_lp_mmshare_version>
55123

> <i_f3d_flags>
0

> <s_epik_input>
Tz1DMU9bQ0gyXVtDSDJdTjFbQ0BASF0oW0NIM10pYzJbY0hdW2NIXWMoW2NIXVtjSF0yKS1jKGMoW2NIXTMpW0NIM10pYyhbQ0gzXSljKGMzNCljKC1uNW5bY0hdW2NIXWM1W0NIM10pW2NIXWMobjQpQyg9TylbTkhdW0NIMl1bQ0gyXVMoPU8pKD1PKVtDSDNd

> <s_epik_cmdline>
J2VwaWtfcHl0aG9uJywgJy1waHQnLCAnMC41JywgJy1waCcsICc3LjUnLCAnLXRuJywgJzgnLCAnLW1hJywgJzUwMCcsICctaW1hZScsICc8aW5maWxlLm1hZT4nLCAnLW9tYWUnLCAnPG91dGZpbGUubWFlPic=

> <r_lp_tautomer_probability>
1

> <r_epik_Ionization_Penalty>
2.231e-05

> <r_epik_Ionization_Penalty_Charging>
0

> <r_epik_Ionization_Penalty_Neutral>
2.231e-05

> <r_epik_State_Penalty>
-0

> <r_epik_Charging_Adjusted_Penalty>
0

> <i_epik_Tot_Q>
0

> <i_epik_Tot_abs_Q>
0

> <s_epik_Chemistry_Notes>
This compound has an ester and may undergo hydrolysis at high or low pH.

> <s_lp_Force_Field>
S-OPLS

> <r_lp_Energy>
33.6776

> <b_lp_Chiralities_Consistent>
1

> <s_lp_Variant>
ligprep_h3d.sdf:1184-1

> <ROCS_ShapeQuery>
_7L13

> <ROCS_TanimotoCombo>
0.712 

> <ROCS_ShapeTanimoto>
0.606 

> <ROCS_ColorTanimoto>
0.107 

> <ROCS_RefTversky>
0.800 

> <ROCS_RefColorTversky>
0.221 

> <ROCS_RefTverskyCombo>
1.021 

> <ROCS_FitTversky>
0.714 

> <ROCS_FitColorTversky>
0.171 

> <ROCS_FitTverskyCombo>
0.885 

> <ROCS_ColorScore>
-2.024

> <ROCS_Overlap>
1337.319

> <ROCS_Rank>
211                 

$$$$
ligprep_h3d.sdf:5307_1029
  -OEChem-08212117123D

 75 80  0     0  0  0  0  0  0999 V2000
  -19.3752   -5.7860  -35.8011 C   0  0  0  0  0  0  0  0  0  0  0  0
  -20.4905   -6.5840  -35.5466 C   0  0  0  0  0  0  0  0  0  0  0  0
  -18.8240   -5.0116  -34.7802 C   0  0  0  0  0  0  0  0  0  0  0  0
  -21.0547   -6.6077  -34.2711 C   0  0  0  0  0  0  0  0  0  0  0  0
  -19.3882   -5.0352  -33.5048 C   0  0  0  0  0  0  0  0  0  0  0  0
  -23.1506   -3.8265  -28.4546 C   0  0  0  0  0  0  0  0  0  0  0  0
  -20.5297   -4.7714  -28.9071 C   0  0  0  0  0  0  0  0  0  0  0  0
  -14.8024   -5.6651  -25.0473 C   0  0  0  0  0  0  0  0  0  0  0  0
  -15.2915   -6.7307  -25.7655 C   0  0  0  0  0  0  0  0  0  0  0  0
  -22.3198   -4.1477  -27.3882 C   0  0  0  0  0  0  0  0  0  0  0  0
  -20.5036   -5.8333  -33.2502 C   0  0  0  0  0  0  0  0  0  0  0  0
  -21.0246   -4.6145  -27.6206 C   0  0  0  0  0  0  0  0  0  0  0  0
  -22.6658   -3.9795  -29.7550 C   0  0  0  0  0  0  0  0  0  0  0  0
  -21.3641   -4.4488  -29.9792 C   0  0  0  0  0  0  0  0  0  0  0  0
  -16.8464   -5.1819  -25.4437 C   0  0  0  0  0  0  0  0  0  0  0  0
  -18.1614   -4.6483  -25.5816 C   0  0  0  0  0  0  0  0  0  0  0  0
  -18.8016   -6.6385  -26.8341 C   0  0  0  0  0  0  0  0  0  0  0  0
  -17.5657   -7.1478  -26.7093 C   0  0  0  0  0  0  0  0  0  0  0  0
  -19.1215   -5.3321  -26.2479 C   0  0  0  0  0  0  0  0  0  0  0  0
  -23.7958   -4.9914  -25.5246 C   0  0  0  0  0  0  0  0  0  0  0  0
  -22.9374   -2.6155  -25.4815 C   0  0  0  0  0  0  0  0  0  0  0  0
  -21.2830   -4.5602  -25.2933 C   0  0  0  0  0  0  0  0  0  0  0  0
  -24.1913   -4.8656  -24.0577 C   0  0  0  0  0  0  0  0  0  0  0  0
  -23.3388   -2.5068  -24.0149 C   0  0  0  0  0  0  0  0  0  0  0  0
  -22.6266   -4.0635  -25.9063 C   0  0  0  0  0  0  0  0  0  0  0  0
  -27.3280   -3.0524  -23.4271 C   0  0  0  0  0  0  0  0  0  0  0  0
  -27.0886   -3.0898  -20.9356 C   0  0  0  0  0  0  0  0  0  0  0  0
  -23.4228   -2.3232  -31.2844 C   0  0  0  0  0  0  0  0  0  0  0  0
  -21.1102   -5.8581  -31.8780 C   0  0  0  0  0  0  0  0  0  0  0  0
  -25.0237   -3.2622  -22.3410 C   0  0  0  0  0  0  0  0  0  0  0  0
  -26.5154   -3.6111  -22.2575 C   0  0  0  0  0  0  0  0  0  0  0  0
  -15.7680   -4.7105  -24.8514 N   0  0  0  0  0  0  0  0  0  0  0  0
  -16.6029   -6.4221  -26.0202 N   0  0  0  0  0  0  0  0  0  0  0  0
  -20.3795   -4.8711  -26.4063 N   0  0  0  0  0  0  0  0  0  0  0  0
  -24.5062   -3.4237  -23.7441 N   0  3  0  0  0  0  0  0  0  0  0  0
  -26.6663   -5.0331  -22.2658 O   0  0  0  0  0  0  0  0  0  0  0  0
  -23.4736   -3.6658  -30.8075 O   0  0  0  0  0  0  0  0  0  0  0  0
  -20.8977   -4.5948  -31.2525 O   0  0  0  0  0  0  0  0  0  0  0  0
  -18.9352   -5.7687  -36.7940 H   0  0  0  0  0  0  0  0  0  0  0  0
  -20.9192   -7.1879  -36.3411 H   0  0  0  0  0  0  0  0  0  0  0  0
  -17.9551   -4.3910  -34.9778 H   0  0  0  0  0  0  0  0  0  0  0  0
  -21.9238   -7.2323  -34.0820 H   0  0  0  0  0  0  0  0  0  0  0  0
  -18.9522   -4.4285  -32.7155 H   0  0  0  0  0  0  0  0  0  0  0  0
  -24.1591   -3.4628  -28.2834 H   0  0  0  0  0  0  0  0  0  0  0  0
  -19.5244   -5.1327  -29.0945 H   0  0  0  0  0  0  0  0  0  0  0  0
  -13.8017   -5.5374  -24.6612 H   0  0  0  0  0  0  0  0  0  0  0  0
  -14.8360   -7.6502  -26.1065 H   0  0  0  0  0  0  0  0  0  0  0  0
  -18.3722   -3.6801  -25.1379 H   0  0  0  0  0  0  0  0  0  0  0  0
  -19.5728   -7.1840  -27.3674 H   0  0  0  0  0  0  0  0  0  0  0  0
  -17.2810   -8.1070  -27.1245 H   0  0  0  0  0  0  0  0  0  0  0  0
  -23.5437   -6.0377  -25.7418 H   0  0  0  0  0  0  0  0  0  0  0  0
  -24.6753   -4.7624  -26.1415 H   0  0  0  0  0  0  0  0  0  0  0  0
  -23.7531   -2.2096  -26.0950 H   0  0  0  0  0  0  0  0  0  0  0  0
  -22.0725   -1.9656  -25.6679 H   0  0  0  0  0  0  0  0  0  0  0  0
  -20.8210   -3.7980  -24.6541 H   0  0  0  0  0  0  0  0  0  0  0  0
  -21.4232   -5.4579  -24.6790 H   0  0  0  0  0  0  0  0  0  0  0  0
  -25.0955   -5.4494  -23.8555 H   0  0  0  0  0  0  0  0  0  0  0  0
  -23.3942   -5.1879  -23.3798 H   0  0  0  0  0  0  0  0  0  0  0  0
  -22.5275   -2.7906  -23.3364 H   0  0  0  0  0  0  0  0  0  0  0  0
  -23.6633   -1.4870  -23.7832 H   0  0  0  0  0  0  0  0  0  0  0  0
  -26.9439   -3.4064  -24.3892 H   0  0  0  0  0  0  0  0  0  0  0  0
  -27.3014   -1.9563  -23.4283 H   0  0  0  0  0  0  0  0  0  0  0  0
  -28.3863   -3.3235  -23.3484 H   0  0  0  0  0  0  0  0  0  0  0  0
  -26.5204   -3.4783  -20.0825 H   0  0  0  0  0  0  0  0  0  0  0  0
  -27.0718   -1.9957  -20.8928 H   0  0  0  0  0  0  0  0  0  0  0  0
  -28.1219   -3.4281  -20.7969 H   0  0  0  0  0  0  0  0  0  0  0  0
  -24.1135   -2.2073  -32.1233 H   0  0  0  0  0  0  0  0  0  0  0  0
  -22.4042   -2.0866  -31.6019 H   0  0  0  0  0  0  0  0  0  0  0  0
  -23.7169   -1.6479  -30.4774 H   0  0  0  0  0  0  0  0  0  0  0  0
  -22.1865   -6.0549  -31.9289 H   0  0  0  0  0  0  0  0  0  0  0  0
  -20.6531   -6.6433  -31.2662 H   0  0  0  0  0  0  0  0  0  0  0  0
  -24.4201   -3.9367  -21.7251 H   0  0  0  0  0  0  0  0  0  0  0  0
  -24.8238   -2.2260  -22.0510 H   0  0  0  0  0  0  0  0  0  0  0  0
  -25.2714   -3.1357  -24.3696 H   0  0  0  0  0  0  0  0  0  0  0  0
  -27.6135   -5.2062  -22.1623 H   0  0  0  0  0  0  0  0  0  0  0  0
  1  2  2  0  0  0  0
  1  3  1  0  0  0  0
  2  4  1  0  0  0  0
  3  5  2  0  0  0  0
  4 11  2  0  0  0  0
  5 11  1  0  0  0  0
  6 10  1  0  0  0  0
  6 13  2  0  0  0  0
  7 12  1  0  0  0  0
  7 14  2  0  0  0  0
  8  9  2  0  0  0  0
  8 32  1  0  0  0  0
  9 33  1  0  0  0  0
 10 12  2  0  0  0  0
 10 25  1  0  0  0  0
 11 29  1  0  0  0  0
 12 34  1  0  0  0  0
 13 14  1  0  0  0  0
 13 37  1  0  0  0  0
 14 38  1  0  0  0  0
 15 16  1  0  0  0  0
 15 32  2  0  0  0  0
 15 33  1  0  0  0  0
 16 19  2  0  0  0  0
 17 18  2  0  0  0  0
 17 19  1  0  0  0  0
 18 33  1  0  0  0  0
 19 34  1  0  0  0  0
 20 23  1  0  0  0  0
 20 25  1  0  0  0  0
 21 24  1  0  0  0  0
 21 25  1  0  0  0  0
 22 25  1  0  0  0  0
 22 34  1  0  0  0  0
 23 35  1  0  0  0  0
 24 35  1  0  0  0  0
 26 31  1  0  0  0  0
 27 31  1  0  0  0  0
 28 37  1  0  0  0  0
 29 38  1  0  0  0  0
 30 31  1  0  0  0  0
 30 35  1  0  0  0  0
 31 36  1  0  0  0  0
  1 39  1  0  0  0  0
  2 40  1  0  0  0  0
  3 41  1  0  0  0  0
  4 42  1  0  0  0  0
  5 43  1  0  0  0  0
  6 44  1  0  0  0  0
  7 45  1  0  0  0  0
  8 46  1  0  0  0  0
  9 47  1  0  0  0  0
 16 48  1  0  0  0  0
 17 49  1  0  0  0  0
 18 50  1  0  0  0  0
 20 51  1  0  0  0  0
 20 52  1  0  0  0  0
 21 53  1  0  0  0  0
 21 54  1  0  0  0  0
 22 55  1  0  0  0  0
 22 56  1  0  0  0  0
 23 57  1  0  0  0  0
 23 58  1  0  0  0  0
 24 59  1  0  0  0  0
 24 60  1  0  0  0  0
 26 61  1  0  0  0  0
 26 62  1  0  0  0  0
 26 63  1  0  0  0  0
 27 64  1  0  0  0  0
 27 65  1  0  0  0  0
 27 66  1  0  0  0  0
 28 67  1  0  0  0  0
 28 68  1  0  0  0  0
 28 69  1  0  0  0  0
 29 70  1  0  0  0  0
 29 71  1  0  0  0  0
 30 72  1  0  0  0  0
 30 73  1  0  0  0  0
 35 74  1  0  0  0  0
 36 75  1  0  0  0  0
M  CHG  1  35   1
M  END
> <SMILES>
COc1cc2c(cc1OCc1ccccc1)N(CC12CCN(CC1)CC(C)(C)O)c1ccn2ccnc2c1

> <FORMATTED_ID>
H3D-014268

> <MOLFORMULA>
C31H36N4O3

> <Exact Mass>
512.28

> <XLogP>
6.15

> <TPSA_NOPS>
62.5

> <s_m_source_file>
ligprep_h3d.sdf

> <i_m_source_file_index>
5307

> <i_lp_mmshare_version>
55123

> <i_f3d_flags>
0

> <s_epik_input>
W2NIXTFbY0hdW2NIXVtjSF1bY0hdYzFbQ0gyXU9jKGMoW2NIXTIpT1tDSDNdKVtjSF1jKE4oW0NIMl0zKWMoW2NIXVtjSF00KVtjSF1jKG40NSluW2NIXVtjSF01KWMyQzM2W0NIMl1bQ0gyXU4oW0NIMl1bQ0gyXTYpW0NIMl1DKFtDSDNdKShbQ0gzXSlbT0hd

> <s_epik_cmdline>
J2VwaWtfcHl0aG9uJywgJy1waHQnLCAnMC41JywgJy1waCcsICc3LjUnLCAnLXRuJywgJzgnLCAnLW1hJywgJzUwMCcsICctaW1hZScsICc8aW5maWxlLm1hZT4nLCAnLW9tYWUnLCAnPG91dGZpbGUubWFlPic=

> <r_lp_tautomer_probability>
1

> <r_epik_Ionization_Penalty>
0.448663

> <r_epik_Ionization_Penalty_Charging>
0.448663

> <r_epik_Ionization_Penalty_Neutral>
4.49167e-08

> <r_epik_State_Penalty>
0.472867

> <r_epik_Charging_Adjusted_Penalty>
0.921529

> <i_epik_Tot_Q>
1

> <i_epik_Tot_abs_Q>
1

> <s_lp_Force_Field>
S-OPLS

> <r_lp_Energy>
69.3898

> <b_lp_Chiralities_Consistent>
1

> <s_lp_Variant>
ligprep_h3d.sdf:5307-2

> <ROCS_ShapeQuery>
_7L13

> <ROCS_TanimotoCombo>
0.740 

> <ROCS_ShapeTanimoto>
0.639 

> <ROCS_ColorTanimoto>
0.102 

> <ROCS_RefTversky>
0.800 

> <ROCS_RefColorTversky>
0.230 

> <ROCS_RefTverskyCombo>
1.029 

> <ROCS_FitTversky>
0.760 

> <ROCS_FitColorTversky>
0.154 

> <ROCS_FitTverskyCombo>
0.914 

> <ROCS_ColorScore>
-2.124

> <ROCS_Overlap>
1331.762

> <ROCS_Rank>
212                 

$$$$
ligprep_h3d.sdf:854_465
  -OEChem-08212117123D

 65 70  0     1  0  0  0  0  0999 V2000
  -20.7191   -4.7189  -29.5770 C   0  0  0  0  0  0  0  0  0  0  0  0
  -21.6717   -4.1097  -30.3966 C   0  0  0  0  0  0  0  0  0  0  0  0
  -20.8749   -4.6338  -28.1725 C   0  0  0  0  0  0  0  0  0  0  0  0
  -21.9831   -3.9940  -27.5688 C   0  0  0  0  0  0  0  0  0  0  0  0
  -22.7262   -3.4530  -29.8011 C   0  0  0  0  0  0  0  0  0  0  0  0
  -22.9184   -3.3638  -28.4223 C   0  0  0  0  0  0  0  0  0  0  0  0
  -21.9035   -3.9363  -31.7737 C   0  0  0  0  0  0  0  0  0  0  0  0
  -18.9997   -3.1970  -26.1965 C   0  0  0  0  0  0  0  0  0  0  0  0
  -18.7599   -5.5174  -25.1560 C   0  0  0  0  0  0  0  0  0  0  0  0
  -16.8714   -4.0542  -25.8331 C   0  0  0  0  0  0  0  0  0  0  0  0
  -19.8813   -7.1140  -34.0399 C   0  0  0  0  0  0  0  0  0  0  0  0
  -19.8302   -5.2963  -27.3152 C   0  0  0  0  0  0  0  0  0  0  0  0
  -19.9271   -4.7428  -34.7800 C   0  0  0  0  0  0  0  0  0  0  0  0
  -21.2547   -4.3017  -34.1662 C   0  0  0  0  0  0  0  0  0  0  0  0
  -19.8384   -5.2056  -32.4198 C   0  0  0  0  0  0  0  0  0  0  0  0
  -23.4559   -3.9026  -25.5752 C   0  0  0  0  0  0  0  0  0  0  0  0
  -19.3595   -5.7336  -33.7721 C   0  0  1  0  0  0  0  0  0  0  0  0
  -21.0535   -4.4764  -25.2695 C   0  0  2  0  0  0  0  0  0  0  0  0
  -23.3986   -3.1208  -24.2642 C   0  0  1  0  0  0  0  0  0  0  0  0
  -21.1029   -3.6259  -23.9623 C   0  0  2  0  0  0  0  0  0  0  0  0
  -19.6515   -4.5790  -25.9558 C   0  0  2  0  0  0  0  0  0  0  0  0
  -24.7390   -3.1638  -23.5421 C   0  0  0  0  0  0  0  0  0  0  0  0
  -20.1653   -4.0780  -22.8501 C   0  0  0  0  0  0  0  0  0  0  0  0
  -18.8220   -8.8436  -37.0069 C   0  0  0  0  0  0  0  0  0  0  0  0
  -19.6253   -8.7483  -35.7274 C   0  0  0  0  0  0  0  0  0  0  0  0
  -23.0092   -3.2258  -32.0162 N   0  0  0  0  0  0  0  0  0  0  0  0
  -17.6860   -3.1831  -26.4285 N   0  5  0  0  0  0  0  0  0  0  0  0
  -17.4314   -5.1451  -25.1728 N   0  0  0  0  0  0  0  0  0  0  0  0
  -22.1131   -3.9494  -26.1769 N   0  0  1  0  0  0  0  0  0  0  0  0
  -21.0550   -4.4559  -32.7294 N   0  0  0  0  0  0  0  0  0  0  0  0
  -19.6952   -2.1852  -26.2871 O   0  0  0  0  0  0  0  0  0  0  0  0
  -19.1583   -6.5452  -24.6122 O   0  0  0  0  0  0  0  0  0  0  0  0
  -15.6424   -3.9457  -25.8563 O   0  0  0  0  0  0  0  0  0  0  0  0
  -20.9209   -7.5565  -33.5705 O   0  0  0  0  0  0  0  0  0  0  0  0
  -23.5265   -2.9178  -30.7633 O   0  0  0  0  0  0  0  0  0  0  0  0
  -22.4235   -3.7001  -23.3993 O   0  0  0  0  0  0  0  0  0  0  0  0
  -19.0238   -7.7721  -34.8710 O   0  0  0  0  0  0  0  0  0  0  0  0
  -23.9230   -2.6002  -27.9763 F   0  0  0  0  0  0  0  0  0  0  0  0
  -19.8692   -5.2402  -30.0085 H   0  0  0  0  0  0  0  0  0  0  0  0
  -20.1357   -6.3416  -27.1674 H   0  0  0  0  0  0  0  0  0  0  0  0
  -18.8740   -5.3266  -27.8548 H   0  0  0  0  0  0  0  0  0  0  0  0
  -20.0661   -5.1690  -35.7786 H   0  0  0  0  0  0  0  0  0  0  0  0
  -19.2578   -3.8780  -34.8649 H   0  0  0  0  0  0  0  0  0  0  0  0
  -21.4951   -3.2682  -34.4404 H   0  0  0  0  0  0  0  0  0  0  0  0
  -22.0717   -4.9530  -34.5002 H   0  0  0  0  0  0  0  0  0  0  0  0
  -20.0317   -6.0104  -31.7002 H   0  0  0  0  0  0  0  0  0  0  0  0
  -19.0961   -4.5215  -31.9905 H   0  0  0  0  0  0  0  0  0  0  0  0
  -23.7638   -4.9384  -25.3785 H   0  0  0  0  0  0  0  0  0  0  0  0
  -24.2379   -3.4690  -26.1949 H   0  0  0  0  0  0  0  0  0  0  0  0
  -18.2673   -5.7782  -33.8277 H   0  0  0  0  0  0  0  0  0  0  0  0
  -21.3797   -5.4933  -25.0042 H   0  0  0  0  0  0  0  0  0  0  0  0
  -23.1391   -2.0709  -24.4533 H   0  0  0  0  0  0  0  0  0  0  0  0
  -20.8857   -2.5711  -24.1673 H   0  0  0  0  0  0  0  0  0  0  0  0
  -25.0216   -4.1974  -23.3413 H   0  0  0  0  0  0  0  0  0  0  0  0
  -25.5095   -2.6999  -24.1580 H   0  0  0  0  0  0  0  0  0  0  0  0
  -24.6707   -2.6259  -22.5964 H   0  0  0  0  0  0  0  0  0  0  0  0
  -20.3469   -5.1262  -22.6123 H   0  0  0  0  0  0  0  0  0  0  0  0
  -20.3320   -3.4784  -21.9551 H   0  0  0  0  0  0  0  0  0  0  0  0
  -19.1285   -3.9614  -23.1660 H   0  0  0  0  0  0  0  0  0  0  0  0
  -18.8056   -7.8834  -37.5299 H   0  0  0  0  0  0  0  0  0  0  0  0
  -17.7919   -9.1480  -36.7942 H   0  0  0  0  0  0  0  0  0  0  0  0
  -19.2467   -9.6016  -37.6735 H   0  0  0  0  0  0  0  0  0  0  0  0
  -19.6377   -9.7119  -35.2093 H   0  0  0  0  0  0  0  0  0  0  0  0
  -20.6540   -8.4433  -35.9416 H   0  0  0  0  0  0  0  0  0  0  0  0
  -16.7909   -5.7317  -24.6452 H   0  0  0  0  0  0  0  0  0  0  0  0
  1  2  2  0  0  0  0
  1  3  1  0  0  0  0
  2  5  1  0  0  0  0
  2  7  1  0  0  0  0
  3  4  2  0  0  0  0
  3 12  1  0  0  0  0
  4  6  1  0  0  0  0
  4 29  1  0  0  0  0
  5  6  2  0  0  0  0
  5 35  1  0  0  0  0
  6 38  1  0  0  0  0
  7 26  2  0  0  0  0
  7 30  1  0  0  0  0
  8 21  1  0  0  0  0
  8 27  1  0  0  0  0
  8 31  2  0  0  0  0
  9 21  1  0  0  0  0
  9 28  1  0  0  0  0
  9 32  2  0  0  0  0
 10 27  1  0  0  0  0
 10 28  1  0  0  0  0
 10 33  2  0  0  0  0
 11 17  1  0  0  0  0
 11 34  2  0  0  0  0
 11 37  1  0  0  0  0
 12 21  1  0  0  0  0
 13 14  1  0  0  0  0
 13 17  1  0  0  0  0
 14 30  1  0  0  0  0
 15 17  1  0  0  0  0
 15 30  1  0  0  0  0
 16 19  1  0  0  0  0
 16 29  1  0  0  0  0
 18 20  1  0  0  0  0
 18 21  1  0  0  0  0
 18 29  1  0  0  0  0
 19 22  1  0  0  0  0
 19 36  1  0  0  0  0
 20 23  1  0  0  0  0
 20 36  1  0  0  0  0
 24 25  1  0  0  0  0
 25 37  1  0  0  0  0
 26 35  1  0  0  0  0
  1 39  1  0  0  0  0
 12 40  1  0  0  0  0
 12 41  1  0  0  0  0
 13 42  1  0  0  0  0
 13 43  1  0  0  0  0
 14 44  1  0  0  0  0
 14 45  1  0  0  0  0
 15 46  1  0  0  0  0
 15 47  1  0  0  0  0
 16 48  1  0  0  0  0
 16 49  1  0  0  0  0
 17 50  1  0  0  0  0
 18 51  1  0  0  0  0
 19 52  1  0  0  0  0
 20 53  1  0  0  0  0
 22 54  1  0  0  0  0
 22 55  1  0  0  0  0
 22 56  1  0  0  0  0
 23 57  1  0  0  0  0
 23 58  1  0  0  0  0
 23 59  1  0  0  0  0
 24 60  1  0  0  0  0
 24 61  1  0  0  0  0
 24 62  1  0  0  0  0
 25 63  1  0  0  0  0
 25 64  1  0  0  0  0
 28 65  1  0  0  0  0
M  CHG  1  27  -1
M  END
> <SMILES>
CCOC(=O)[C@H]1CCN(C1)c1noc2c(c3c(cc12)CC1([C@H]2[C@H](C)O[C@H](C)CN23)C(=O)NC(=O)NC1=O)F

> <FORMATTED_ID>
H3D-005666

> <MOLFORMULA>
C25H28FN5O7

> <Exact Mass>
529.2

> <XLogP>
1.01

> <TPSA_NOPS>
143.6

> <s_m_source_file>
ligprep_h3d.sdf

> <i_m_source_file_index>
854

> <i_lp_mmshare_version>
55123

> <i_f3d_flags>
0

> <s_epik_input>
W0NIM11bQ0gyXU9DKD1PKVtDQEhdMVtDSDJdW0NIMl1OKFtDSDJdMSljMm5vYyhjM0YpYzJbY0hdYyhbQ0gyXTQpYzNOKFtDSDJdW0NAQEhdKFtDSDNdKU9bQ0BIXTVbQ0gzXSlbQ0BIXTVDNDZDKD1PKVtOSF1DKD1PKVtOSF1DNj1P

> <s_epik_cmdline>
J2VwaWtfcHl0aG9uJywgJy1waHQnLCAnMC41JywgJy1waCcsICc3LjUnLCAnLXRuJywgJzgnLCAnLW1hJywgJzUwMCcsICctaW1hZScsICc8aW5maWxlLm1hZT4nLCAnLW9tYWUnLCAnPG91dGZpbGUubWFlPic=

> <r_lp_tautomer_probability>
1

> <r_epik_Ionization_Penalty>
0.455388

> <r_epik_Ionization_Penalty_Charging>
0.455373

> <r_epik_Ionization_Penalty_Neutral>
1.49564e-05

> <r_epik_State_Penalty>
0.458483

> <r_epik_Charging_Adjusted_Penalty>
0.913857

> <i_epik_Tot_Q>
-1

> <i_epik_Tot_abs_Q>
1

> <s_epik_Chemistry_Notes>
This compound has an ester and may undergo hydrolysis at high or low pH.

> <s_lp_Force_Field>
S-OPLS

> <r_lp_Energy>
53.2489

> <b_lp_Chiralities_Consistent>
1

> <s_lp_Variant>
ligprep_h3d.sdf:854-2

> <ROCS_ShapeQuery>
_7L13

> <ROCS_TanimotoCombo>
0.745 

> <ROCS_ShapeTanimoto>
0.629 

> <ROCS_ColorTanimoto>
0.116 

> <ROCS_RefTversky>
0.800 

> <ROCS_RefColorTversky>
0.269 

> <ROCS_RefTverskyCombo>
1.069 

> <ROCS_FitTversky>
0.746 

> <ROCS_FitColorTversky>
0.170 

> <ROCS_FitTverskyCombo>
0.916 

> <ROCS_ColorScore>
-2.501

> <ROCS_Overlap>
1333.208

> <ROCS_Rank>
213                 

$$$$
ligprep_h3d.sdf:3002_1480
  -OEChem-08212117123D

 69 74  0     0  0  0  0  0  0999 V2000
  -24.1455   -4.2859  -23.3537 C   0  0  0  0  0  0  0  0  0  0  0  0
  -25.2302   -5.0442  -23.8437 C   0  0  0  0  0  0  0  0  0  0  0  0
  -21.3480   -6.8454  -34.3096 C   0  0  0  0  0  0  0  0  0  0  0  0
  -19.2225   -5.7556  -25.8502 C   0  0  0  0  0  0  0  0  0  0  0  0
  -17.9541   -3.7323  -25.4836 C   0  0  0  0  0  0  0  0  0  0  0  0
  -20.3281   -4.9940  -26.2285 C   0  0  0  0  0  0  0  0  0  0  0  0
  -19.0597   -2.9707  -25.8620 C   0  0  0  0  0  0  0  0  0  0  0  0
  -23.1870   -3.7262  -24.2106 C   0  0  0  0  0  0  0  0  0  0  0  0
  -25.4092   -5.2799  -25.2144 C   0  0  0  0  0  0  0  0  0  0  0  0
  -20.8813   -8.0399  -34.8624 C   0  0  0  0  0  0  0  0  0  0  0  0
  -20.5029   -3.2238  -34.4413 C   0  0  0  0  0  0  0  0  0  0  0  0
  -19.1623   -6.8313  -36.0564 C   0  0  0  0  0  0  0  0  0  0  0  0
  -19.4273   -3.2869  -35.3115 C   0  0  0  0  0  0  0  0  0  0  0  0
  -20.7265   -5.6265  -34.6236 C   0  0  0  0  0  0  0  0  0  0  0  0
  -18.0355   -5.1248  -25.4776 C   0  0  0  0  0  0  0  0  0  0  0  0
  -20.2467   -3.6015  -26.2345 C   0  0  0  0  0  0  0  0  0  0  0  0
  -23.3778   -3.9682  -25.5658 C   0  0  0  0  0  0  0  0  0  0  0  0
  -24.4514   -4.7188  -26.0508 C   0  0  0  0  0  0  0  0  0  0  0  0
  -19.6241   -5.6313  -35.5066 C   0  0  0  0  0  0  0  0  0  0  0  0
  -21.1563   -4.4016  -34.0956 C   0  0  0  0  0  0  0  0  0  0  0  0
  -19.7919   -8.0324  -35.7329 C   0  0  0  0  0  0  0  0  0  0  0  0
  -23.2241   -4.0556  -27.7824 C   0  0  0  0  0  0  0  0  0  0  0  0
  -16.8819   -5.9180  -25.0834 C   0  0  0  0  0  0  0  0  0  0  0  0
  -21.5204   -4.8457  -30.9447 C   0  0  0  0  0  0  0  0  0  0  0  0
  -23.4972   -3.3589  -31.3677 C   0  0  0  0  0  0  0  0  0  0  0  0
  -21.4618   -4.3412  -29.5024 C   0  0  0  0  0  0  0  0  0  0  0  0
  -23.4047   -2.8555  -29.9295 C   0  0  0  0  0  0  0  0  0  0  0  0
  -22.1275   -3.8033  -31.8848 C   0  0  0  0  0  0  0  0  0  0  0  0
  -14.3799   -6.0165  -24.9626 C   0  0  0  0  0  0  0  0  0  0  0  0
  -21.4394   -2.7803  -26.6438 C   0  0  0  0  0  0  0  0  0  0  0  0
  -22.6496   -3.5813  -26.6722 N   0  0  0  0  0  0  0  0  0  0  0  0
  -19.0258   -4.4638  -35.8099 N   0  3  0  0  0  0  0  0  0  0  0  0
  -24.3125   -4.7443  -27.4233 N   0  3  0  0  0  0  0  0  0  0  0  0
  -22.7849   -3.8756  -29.0748 N   0  0  0  0  0  0  0  0  0  0  0  0
  -22.2277   -4.3234  -33.2261 N   0  0  0  0  0  0  0  0  0  0  0  0
  -15.6199   -5.3459  -25.2813 N   0  0  0  0  0  0  0  0  0  0  0  0
  -17.0318   -7.0596  -24.6130 O   0  0  0  0  0  0  0  0  0  0  0  0
  -19.2238   -9.5097  -36.4094 Cl  0  0  0  0  0  0  0  0  0  0  0  0
  -24.0507   -4.1317  -22.2810 H   0  0  0  0  0  0  0  0  0  0  0  0
  -25.9477   -5.4568  -23.1378 H   0  0  0  0  0  0  0  0  0  0  0  0
  -22.1994   -6.8913  -33.6348 H   0  0  0  0  0  0  0  0  0  0  0  0
  -19.2963   -6.8400  -25.8491 H   0  0  0  0  0  0  0  0  0  0  0  0
  -17.0344   -3.2300  -25.1952 H   0  0  0  0  0  0  0  0  0  0  0  0
  -21.2488   -5.4938  -26.5176 H   0  0  0  0  0  0  0  0  0  0  0  0
  -18.9872   -1.8862  -25.8642 H   0  0  0  0  0  0  0  0  0  0  0  0
  -22.3523   -3.1435  -23.8420 H   0  0  0  0  0  0  0  0  0  0  0  0
  -26.2361   -5.8601  -25.6033 H   0  0  0  0  0  0  0  0  0  0  0  0
  -21.3795   -8.9713  -34.6046 H   0  0  0  0  0  0  0  0  0  0  0  0
  -20.8205   -2.2650  -34.0429 H   0  0  0  0  0  0  0  0  0  0  0  0
  -18.3124   -6.8220  -36.7350 H   0  0  0  0  0  0  0  0  0  0  0  0
  -18.8639   -2.4214  -35.6325 H   0  0  0  0  0  0  0  0  0  0  0  0
  -20.5005   -5.0610  -31.2792 H   0  0  0  0  0  0  0  0  0  0  0  0
  -22.0767   -5.7855  -30.9915 H   0  0  0  0  0  0  0  0  0  0  0  0
  -24.2220   -4.1694  -31.4392 H   0  0  0  0  0  0  0  0  0  0  0  0
  -23.8556   -2.5437  -31.9996 H   0  0  0  0  0  0  0  0  0  0  0  0
  -21.1359   -5.1310  -28.8172 H   0  0  0  0  0  0  0  0  0  0  0  0
  -20.7458   -3.5158  -29.4249 H   0  0  0  0  0  0  0  0  0  0  0  0
  -22.8048   -1.9390  -29.8897 H   0  0  0  0  0  0  0  0  0  0  0  0
  -24.3953   -2.6226  -29.5222 H   0  0  0  0  0  0  0  0  0  0  0  0
  -21.4588   -2.9239  -31.9140 H   0  0  0  0  0  0  0  0  0  0  0  0
  -14.0575   -5.7307  -23.9505 H   0  0  0  0  0  0  0  0  0  0  0  0
  -14.5305   -7.1053  -25.0056 H   0  0  0  0  0  0  0  0  0  0  0  0
  -13.6078   -5.7241  -25.6894 H   0  0  0  0  0  0  0  0  0  0  0  0
  -21.5987   -1.9423  -25.9544 H   0  0  0  0  0  0  0  0  0  0  0  0
  -21.2956   -2.3414  -27.6387 H   0  0  0  0  0  0  0  0  0  0  0  0
  -18.2294   -4.4671  -36.4477 H   0  0  0  0  0  0  0  0  0  0  0  0
  -24.9429   -5.2164  -28.0660 H   0  0  0  0  0  0  0  0  0  0  0  0
  -23.1327   -4.6469  -33.5391 H   0  0  0  0  0  0  0  0  0  0  0  0
  -15.5517   -4.4369  -25.7272 H   0  0  0  0  0  0  0  0  0  0  0  0
  1  2  2  0  0  0  0
  1  8  1  0  0  0  0
  2  9  1  0  0  0  0
  3 10  1  0  0  0  0
  3 14  2  0  0  0  0
  4  6  1  0  0  0  0
  4 15  2  0  0  0  0
  5  7  2  0  0  0  0
  5 15  1  0  0  0  0
  6 16  2  0  0  0  0
  7 16  1  0  0  0  0
  8 17  2  0  0  0  0
  9 18  2  0  0  0  0
 10 21  2  0  0  0  0
 11 13  1  0  0  0  0
 11 20  2  0  0  0  0
 12 19  2  0  0  0  0
 12 21  1  0  0  0  0
 13 32  2  0  0  0  0
 14 19  1  0  0  0  0
 14 20  1  0  0  0  0
 15 23  1  0  0  0  0
 16 30  1  0  0  0  0
 17 18  1  0  0  0  0
 17 31  1  0  0  0  0
 18 33  1  0  0  0  0
 19 32  1  0  0  0  0
 20 35  1  0  0  0  0
 21 38  1  0  0  0  0
 22 31  1  0  0  0  0
 22 33  2  0  0  0  0
 22 34  1  0  0  0  0
 23 36  1  0  0  0  0
 23 37  2  0  0  0  0
 24 26  1  0  0  0  0
 24 28  1  0  0  0  0
 25 27  1  0  0  0  0
 25 28  1  0  0  0  0
 26 34  1  0  0  0  0
 27 34  1  0  0  0  0
 28 35  1  0  0  0  0
 29 36  1  0  0  0  0
 30 31  1  0  0  0  0
  1 39  1  0  0  0  0
  2 40  1  0  0  0  0
  3 41  1  0  0  0  0
  4 42  1  0  0  0  0
  5 43  1  0  0  0  0
  6 44  1  0  0  0  0
  7 45  1  0  0  0  0
  8 46  1  0  0  0  0
  9 47  1  0  0  0  0
 10 48  1  0  0  0  0
 11 49  1  0  0  0  0
 12 50  1  0  0  0  0
 13 51  1  0  0  0  0
 24 52  1  0  0  0  0
 24 53  1  0  0  0  0
 25 54  1  0  0  0  0
 25 55  1  0  0  0  0
 26 56  1  0  0  0  0
 26 57  1  0  0  0  0
 27 58  1  0  0  0  0
 27 59  1  0  0  0  0
 28 60  1  0  0  0  0
 29 61  1  0  0  0  0
 29 62  1  0  0  0  0
 29 63  1  0  0  0  0
 30 64  1  0  0  0  0
 30 65  1  0  0  0  0
 32 66  1  0  0  0  0
 33 67  1  0  0  0  0
 35 68  1  0  0  0  0
 36 69  1  0  0  0  0
M  CHG  2  32   1  33   1
M  END
> <SMILES>
CNC(=O)c1ccc(cc1)Cn1c(nc2ccccc12)N1CCC(CC1)Nc1ccnc2cc(ccc12)Cl

> <FORMATTED_ID>
H3D-014803

> <MOLFORMULA>
C30H29ClN6O

> <Exact Mass>
524.21

> <XLogP>
6.66

> <TPSA_NOPS>
75.1

> <s_m_source_file>
ligprep_h3d.sdf

> <i_m_source_file_index>
3002

> <i_lp_mmshare_version>
55123

> <i_f3d_flags>
0

> <s_epik_input>
W0NIM11bTkhdQyg9TyljMVtjSF1bY0hdYyhbY0hdW2NIXTEpW0NIMl1uKGMoYzIzKVtjSF1bY0hdW2NIXVtjSF0zKWMobjIpTjRbQ0gyXVtDSDJdW0NIXShbQ0gyXVtDSDJdNClbTkhdYyhbY0hdW2NIXW41KWMoYzU2KVtjSF1bY0hdYyhDbClbY0hdNg==

> <s_epik_cmdline>
J2VwaWtfcHl0aG9uJywgJy1waHQnLCAnMC41JywgJy1waCcsICc3LjUnLCAnLXRuJywgJzgnLCAnLW1hJywgJzUwMCcsICctaW1hZScsICc8aW5maWxlLm1hZT4nLCAnLW9tYWUnLCAnPG91dGZpbGUubWFlPic=

> <r_epik_Ionization_Penalty>
0.237504

> <r_epik_Ionization_Penalty_Charging>
0.237496

> <r_epik_Ionization_Penalty_Neutral>
8.55973e-06

> <r_epik_State_Penalty>
0.218872

> <r_epik_Charging_Adjusted_Penalty>
0.456367

> <i_epik_Tot_Q>
2

> <i_epik_Tot_abs_Q>
2

> <s_lp_Force_Field>
S-OPLS

> <r_lp_Energy>
65.2734

> <b_lp_Chiralities_Consistent>
1

> <s_lp_Variant>
ligprep_h3d.sdf:3002-1

> <ROCS_ShapeQuery>
_7L13

> <ROCS_TanimotoCombo>
0.696 

> <ROCS_ShapeTanimoto>
0.636 

> <ROCS_ColorTanimoto>
0.060 

> <ROCS_RefTversky>
0.799 

> <ROCS_RefColorTversky>
0.135 

> <ROCS_RefTverskyCombo>
0.934 

> <ROCS_FitTversky>
0.757 

> <ROCS_FitColorTversky>
0.097 

> <ROCS_FitTverskyCombo>
0.853 

> <ROCS_ColorScore>
-1.238

> <ROCS_Overlap>
1331.467

> <ROCS_Rank>
214                 

$$$$
ligprep_h3d.sdf:5338_885
  -OEChem-08212117123D

 79 84  0     0  0  0  0  0  0999 V2000
  -18.7774   -6.9705  -35.4235 C   0  0  0  0  0  0  0  0  0  0  0  0
  -19.8705   -7.7286  -35.0038 C   0  0  0  0  0  0  0  0  0  0  0  0
  -18.5763   -5.6908  -34.9061 C   0  0  0  0  0  0  0  0  0  0  0  0
  -20.7625   -7.2070  -34.0668 C   0  0  0  0  0  0  0  0  0  0  0  0
  -19.4683   -5.1692  -33.9692 C   0  0  0  0  0  0  0  0  0  0  0  0
  -23.0306   -3.8535  -28.8199 C   0  0  0  0  0  0  0  0  0  0  0  0
  -20.3946   -4.6906  -29.3518 C   0  0  0  0  0  0  0  0  0  0  0  0
  -15.0192   -6.8535  -26.4370 C   0  0  0  0  0  0  0  0  0  0  0  0
  -14.4281   -5.8377  -25.7324 C   0  0  0  0  0  0  0  0  0  0  0  0
  -22.1583   -4.1698  -27.7853 C   0  0  0  0  0  0  0  0  0  0  0  0
  -20.5614   -5.9272  -33.5495 C   0  0  0  0  0  0  0  0  0  0  0  0
  -20.8455   -4.5851  -28.0411 C   0  0  0  0  0  0  0  0  0  0  0  0
  -22.5737   -3.9513  -30.1335 C   0  0  0  0  0  0  0  0  0  0  0  0
  -21.2639   -4.3686  -30.3979 C   0  0  0  0  0  0  0  0  0  0  0  0
  -16.5457   -5.2914  -26.0518 C   0  0  0  0  0  0  0  0  0  0  0  0
  -17.8849   -4.6452  -26.0962 C   0  0  0  0  0  0  0  0  0  0  0  0
  -18.5495   -6.6273  -27.3318 C   0  0  0  0  0  0  0  0  0  0  0  0
  -17.3274   -7.1900  -27.2767 C   0  0  0  0  0  0  0  0  0  0  0  0
  -18.8672   -5.3186  -26.7337 C   0  0  0  0  0  0  0  0  0  0  0  0
  -26.0896   -4.7610  -20.6933 C   0  0  0  0  0  0  0  0  0  0  0  0
  -23.3803   -2.8990  -24.3121 C   0  0  0  0  0  0  0  0  0  0  0  0
  -23.7622   -5.3975  -24.4670 C   0  0  0  0  0  0  0  0  0  0  0  0
  -23.0257   -2.8558  -25.7994 C   0  0  0  0  0  0  0  0  0  0  0  0
  -23.3667   -5.3675  -25.9462 C   0  0  0  0  0  0  0  0  0  0  0  0
  -20.9870   -4.4129  -25.7445 C   0  0  0  0  0  0  0  0  0  0  0  0
  -24.3328   -4.0547  -24.0213 C   0  0  0  0  0  0  0  0  0  0  0  0
  -22.4316   -4.1882  -26.2994 C   0  0  0  0  0  0  0  0  0  0  0  0
  -27.5919   -5.4743  -18.8234 C   0  0  0  0  0  0  0  0  0  0  0  0
  -28.1529   -6.1107  -21.1378 C   0  0  0  0  0  0  0  0  0  0  0  0
  -23.4269   -2.2894  -31.6052 C   0  0  0  0  0  0  0  0  0  0  0  0
  -21.5207   -5.3654  -32.5417 C   0  0  0  0  0  0  0  0  0  0  0  0
  -25.8576   -4.7977  -22.1878 C   0  0  0  0  0  0  0  0  0  0  0  0
  -16.3368   -6.4917  -26.6241 N   0  0  0  0  0  0  0  0  0  0  0  0
  -15.3953   -4.8858  -25.5080 N   0  3  0  0  0  0  0  0  0  0  0  0
  -20.1357   -4.8561  -26.8553 N   0  0  0  0  0  0  0  0  0  0  0  0
  -27.2332   -5.4226  -20.2352 N   0  0  0  0  0  0  0  0  0  0  0  0
  -24.5948   -4.1056  -22.5582 N   0  3  0  0  0  0  0  0  0  0  0  0
  -25.2982   -4.1732  -19.9515 O   0  0  0  0  0  0  0  0  0  0  0  0
  -23.4184   -3.6433  -31.1580 O   0  0  0  0  0  0  0  0  0  0  0  0
  -20.8213   -4.4669  -31.6840 O   0  0  0  0  0  0  0  0  0  0  0  0
  -18.0822   -7.3773  -36.1521 H   0  0  0  0  0  0  0  0  0  0  0  0
  -20.0266   -8.7254  -35.4057 H   0  0  0  0  0  0  0  0  0  0  0  0
  -17.7248   -5.1007  -35.2318 H   0  0  0  0  0  0  0  0  0  0  0  0
  -21.6115   -7.8048  -33.7458 H   0  0  0  0  0  0  0  0  0  0  0  0
  -19.3037   -4.1711  -33.5716 H   0  0  0  0  0  0  0  0  0  0  0  0
  -24.0510   -3.5463  -28.6139 H   0  0  0  0  0  0  0  0  0  0  0  0
  -19.3822   -5.0114  -29.5768 H   0  0  0  0  0  0  0  0  0  0  0  0
  -14.6807   -7.7917  -26.8342 H   0  0  0  0  0  0  0  0  0  0  0  0
  -13.4457   -5.6446  -25.3492 H   0  0  0  0  0  0  0  0  0  0  0  0
  -18.0303   -3.6790  -25.6290 H   0  0  0  0  0  0  0  0  0  0  0  0
  -19.3515   -7.1549  -27.8404 H   0  0  0  0  0  0  0  0  0  0  0  0
  -17.0838   -8.1502  -27.7126 H   0  0  0  0  0  0  0  0  0  0  0  0
  -22.4628   -2.9987  -23.7189 H   0  0  0  0  0  0  0  0  0  0  0  0
  -23.8440   -1.9471  -24.0264 H   0  0  0  0  0  0  0  0  0  0  0  0
  -24.5033   -6.1911  -24.3116 H   0  0  0  0  0  0  0  0  0  0  0  0
  -22.8887   -5.6609  -23.8586 H   0  0  0  0  0  0  0  0  0  0  0  0
  -23.9374   -2.6152  -26.3622 H   0  0  0  0  0  0  0  0  0  0  0  0
  -22.3301   -2.0273  -25.9850 H   0  0  0  0  0  0  0  0  0  0  0  0
  -22.9010   -6.3251  -26.2137 H   0  0  0  0  0  0  0  0  0  0  0  0
  -24.2861   -5.3010  -26.5440 H   0  0  0  0  0  0  0  0  0  0  0  0
  -20.5715   -3.4771  -25.3474 H   0  0  0  0  0  0  0  0  0  0  0  0
  -20.9648   -5.1448  -24.9295 H   0  0  0  0  0  0  0  0  0  0  0  0
  -25.3041   -3.8771  -24.4972 H   0  0  0  0  0  0  0  0  0  0  0  0
  -28.2305   -4.6138  -18.5750 H   0  0  0  0  0  0  0  0  0  0  0  0
  -28.1374   -6.4071  -18.6177 H   0  0  0  0  0  0  0  0  0  0  0  0
  -26.6783   -5.4413  -18.2116 H   0  0  0  0  0  0  0  0  0  0  0  0
  -27.8358   -7.1572  -21.2573 H   0  0  0  0  0  0  0  0  0  0  0  0
  -29.1692   -6.0814  -20.7178 H   0  0  0  0  0  0  0  0  0  0  0  0
  -28.1467   -5.6116  -22.1180 H   0  0  0  0  0  0  0  0  0  0  0  0
  -24.1423   -2.1799  -32.4240 H   0  0  0  0  0  0  0  0  0  0  0  0
  -22.4256   -2.0098  -31.9422 H   0  0  0  0  0  0  0  0  0  0  0  0
  -23.7239   -1.6430  -30.7760 H   0  0  0  0  0  0  0  0  0  0  0  0
  -22.3362   -4.8261  -33.0354 H   0  0  0  0  0  0  0  0  0  0  0  0
  -21.9631   -6.1661  -31.9392 H   0  0  0  0  0  0  0  0  0  0  0  0
  -25.7572   -5.8284  -22.5372 H   0  0  0  0  0  0  0  0  0  0  0  0
  -26.6603   -4.2762  -22.7154 H   0  0  0  0  0  0  0  0  0  0  0  0
  -15.2563   -4.0120  -25.0079 H   0  0  0  0  0  0  0  0  0  0  0  0
  -23.8053   -4.5716  -22.0906 H   0  0  0  0  0  0  0  0  0  0  0  0
  -24.6142   -3.1463  -22.1860 H   0  0  0  0  0  0  0  0  0  0  0  0
  1  2  2  0  0  0  0
  1  3  1  0  0  0  0
  2  4  1  0  0  0  0
  3  5  2  0  0  0  0
  4 11  2  0  0  0  0
  5 11  1  0  0  0  0
  6 10  1  0  0  0  0
  6 13  2  0  0  0  0
  7 12  1  0  0  0  0
  7 14  2  0  0  0  0
  8  9  2  0  0  0  0
  8 33  1  0  0  0  0
  9 34  1  0  0  0  0
 10 12  2  0  0  0  0
 10 27  1  0  0  0  0
 11 31  1  0  0  0  0
 12 35  1  0  0  0  0
 13 14  1  0  0  0  0
 13 39  1  0  0  0  0
 14 40  1  0  0  0  0
 15 16  1  0  0  0  0
 15 33  1  0  0  0  0
 15 34  2  0  0  0  0
 16 19  2  0  0  0  0
 17 18  2  0  0  0  0
 17 19  1  0  0  0  0
 18 33  1  0  0  0  0
 19 35  1  0  0  0  0
 20 32  1  0  0  0  0
 20 36  1  0  0  0  0
 20 38  2  0  0  0  0
 21 23  1  0  0  0  0
 21 26  1  0  0  0  0
 22 24  1  0  0  0  0
 22 26  1  0  0  0  0
 23 27  1  0  0  0  0
 24 27  1  0  0  0  0
 25 27  1  0  0  0  0
 25 35  1  0  0  0  0
 26 37  1  0  0  0  0
 28 36  1  0  0  0  0
 29 36  1  0  0  0  0
 30 39  1  0  0  0  0
 31 40  1  0  0  0  0
 32 37  1  0  0  0  0
  1 41  1  0  0  0  0
  2 42  1  0  0  0  0
  3 43  1  0  0  0  0
  4 44  1  0  0  0  0
  5 45  1  0  0  0  0
  6 46  1  0  0  0  0
  7 47  1  0  0  0  0
  8 48  1  0  0  0  0
  9 49  1  0  0  0  0
 16 50  1  0  0  0  0
 17 51  1  0  0  0  0
 18 52  1  0  0  0  0
 21 53  1  0  0  0  0
 21 54  1  0  0  0  0
 22 55  1  0  0  0  0
 22 56  1  0  0  0  0
 23 57  1  0  0  0  0
 23 58  1  0  0  0  0
 24 59  1  0  0  0  0
 24 60  1  0  0  0  0
 25 61  1  0  0  0  0
 25 62  1  0  0  0  0
 26 63  1  0  0  0  0
 28 64  1  0  0  0  0
 28 65  1  0  0  0  0
 28 66  1  0  0  0  0
 29 67  1  0  0  0  0
 29 68  1  0  0  0  0
 29 69  1  0  0  0  0
 30 70  1  0  0  0  0
 30 71  1  0  0  0  0
 30 72  1  0  0  0  0
 31 73  1  0  0  0  0
 31 74  1  0  0  0  0
 32 75  1  0  0  0  0
 32 76  1  0  0  0  0
 34 77  1  0  0  0  0
 37 78  1  0  0  0  0
 37 79  1  0  0  0  0
M  CHG  2  34   1  37   1
M  END
> <SMILES>
COc1cc2c(cc1OCc1ccccc1)N(CC12CCC(CC1)NCC(=O)N(C)C)c1ccn2ccnc2c1

> <FORMATTED_ID>
H3D-014951

> <MOLFORMULA>
C32H37N5O3

> <Exact Mass>
539.29

> <XLogP>
6.47

> <TPSA_NOPS>
71.3

> <s_m_source_file>
ligprep_h3d.sdf

> <i_m_source_file_index>
5338

> <i_lp_mmshare_version>
55123

> <i_f3d_flags>
0

> <s_epik_input>
W2NIXTFbY0hdW2NIXVtjSF1bY0hdYzFbQ0gyXU9jKGMoW2NIXTIpT1tDSDNdKVtjSF1jKE4oW0NIMl0zKWMoW2NIXVtjSF00KVtjSF1jKG40NSluW2NIXVtjSF01KWMyW0NAXTM2W0NIMl1bQ0gyXVtDQEhdKFtDSDJdW0NIMl02KVtOSF1bQ0gyXUMoPU8pTihbQ0gzXSlbQ0gzXQ==

> <s_epik_cmdline>
J2VwaWtfcHl0aG9uJywgJy1waHQnLCAnMC41JywgJy1waCcsICc3LjUnLCAnLXRuJywgJzgnLCAnLW1hJywgJzUwMCcsICctaW1hZScsICc8aW5maWxlLm1hZT4nLCAnLW9tYWUnLCAnPG91dGZpbGUubWFlPic=

> <r_lp_tautomer_probability>
1

> <r_epik_Ionization_Penalty>
0.43962

> <r_epik_Ionization_Penalty_Charging>
0.103805

> <r_epik_Ionization_Penalty_Neutral>
0.335815

> <r_epik_State_Penalty>
0.419669

> <r_epik_Charging_Adjusted_Penalty>
0.523474

> <i_epik_Tot_Q>
2

> <i_epik_Tot_abs_Q>
2

> <s_lp_Force_Field>
S-OPLS

> <r_lp_Energy>
94.6394

> <b_lp_Chiralities_Consistent>
1

> <s_lp_Variant>
ligprep_h3d.sdf:5338-1

> <ROCS_ShapeQuery>
_7L13

> <ROCS_TanimotoCombo>
0.717 

> <ROCS_ShapeTanimoto>
0.616 

> <ROCS_ColorTanimoto>
0.102 

> <ROCS_RefTversky>
0.799 

> <ROCS_RefColorTversky>
0.221 

> <ROCS_RefTverskyCombo>
1.020 

> <ROCS_FitTversky>
0.728 

> <ROCS_FitColorTversky>
0.158 

> <ROCS_FitTverskyCombo>
0.887 

> <ROCS_ColorScore>
-2.032

> <ROCS_Overlap>
1333.835

> <ROCS_Rank>
215                 

$$$$
ligprep_h3d.sdf:1169_1431
  -OEChem-08212117123D

 68 72  0     1  0  0  0  0  0999 V2000
  -16.6628   -4.5600  -26.7844 C   0  0  0  0  0  0  0  0  0  0  0  0
  -23.2328   -4.4596  -28.6744 C   0  0  0  0  0  0  0  0  0  0  0  0
  -20.7287   -4.4077  -25.3582 C   0  0  0  0  0  0  0  0  0  0  0  0
  -17.0114   -5.9121  -26.6052 C   0  0  0  0  0  0  0  0  0  0  0  0
  -21.0271   -4.6678  -27.7432 C   0  0  0  0  0  0  0  0  0  0  0  0
  -22.7261   -4.6980  -29.9544 C   0  0  0  0  0  0  0  0  0  0  0  0
  -20.5172   -4.9076  -29.0305 C   0  0  0  0  0  0  0  0  0  0  0  0
  -22.4062   -4.4394  -27.5543 C   0  0  0  0  0  0  0  0  0  0  0  0
  -20.1946   -4.6473  -26.6161 C   0  0  0  0  0  0  0  0  0  0  0  0
  -21.3667   -4.9224  -30.1330 C   0  0  0  0  0  0  0  0  0  0  0  0
  -22.0897   -4.1953  -25.2728 C   0  0  0  0  0  0  0  0  0  0  0  0
  -17.8649   -3.8962  -26.8111 C   0  0  0  0  0  0  0  0  0  0  0  0
  -19.2012   -6.3590  -36.1790 C   0  0  0  0  0  0  0  0  0  0  0  0
  -22.7131   -3.9395  -23.9855 C   0  0  0  0  0  0  0  0  0  0  0  0
  -19.7620   -6.6647  -33.0362 C   0  0  0  0  0  0  0  0  0  0  0  0
  -19.9716   -4.2206  -33.5117 C   0  0  0  0  0  0  0  0  0  0  0  0
  -20.7950   -6.5394  -31.9164 C   0  0  0  0  0  0  0  0  0  0  0  0
  -21.0303   -4.0974  -32.4194 C   0  0  0  0  0  0  0  0  0  0  0  0
  -21.1531   -5.8898  -35.0313 C   0  0  0  0  0  0  0  0  0  0  0  0
  -19.9470   -5.6145  -34.1390 C   0  0  0  0  0  0  0  0  0  0  0  0
  -23.6731   -4.7066  -31.1106 C   0  0  0  0  0  0  0  0  0  0  0  0
  -19.0633   -5.1594  -29.3105 C   0  0  0  0  0  0  0  0  0  0  0  0
  -18.1648   -2.4597  -26.9714 C   0  0  0  0  0  0  0  0  0  0  0  0
  -24.8028   -4.1551  -22.6155 C   0  0  0  0  0  0  0  0  0  0  0  0
  -26.2921   -4.0071  -22.9090 C   0  0  2  0  0  0  0  0  0  0  0  0
  -26.8464   -5.2301  -23.6121 C   0  0  0  0  0  0  0  0  0  0  0  0
  -18.3315   -6.0978  -26.5237 N   0  0  0  0  0  0  0  0  0  0  0  0
  -22.9275   -4.2066  -26.3349 N   0  0  0  0  0  0  0  0  0  0  0  0
  -18.8231   -4.8537  -26.6521 N   0  0  0  0  0  0  0  0  0  0  0  0
  -20.5655   -6.5313  -36.1625 N   0  0  0  0  0  0  0  0  0  0  0  0
  -20.8653   -5.1611  -31.4191 N   0  0  0  0  0  0  0  0  0  0  0  0
  -24.0399   -4.3581  -23.8261 N   0  0  0  0  0  0  0  0  0  0  0  0
  -18.4273   -6.7112  -37.0576 O   0  0  0  0  0  0  0  0  0  0  0  0
  -22.0858   -3.3543  -23.0839 O   0  0  0  0  0  0  0  0  0  0  0  0
  -18.8178   -5.6991  -35.0399 O   0  0  0  0  0  0  0  0  0  0  0  0
  -26.4783   -2.8734  -23.7540 O   0  0  0  0  0  0  0  0  0  0  0  0
  -28.1510   -5.0766  -23.9236 F   0  0  0  0  0  0  0  0  0  0  0  0
  -26.1738   -5.4790  -24.7570 F   0  0  0  0  0  0  0  0  0  0  0  0
  -26.7339   -6.3263  -22.8297 F   0  0  0  0  0  0  0  0  0  0  0  0
  -15.6769   -4.1291  -26.8802 H   0  0  0  0  0  0  0  0  0  0  0  0
  -24.3008   -4.2840  -28.5499 H   0  0  0  0  0  0  0  0  0  0  0  0
  -20.1056   -4.3854  -24.4686 H   0  0  0  0  0  0  0  0  0  0  0  0
  -16.3583   -6.7697  -26.5305 H   0  0  0  0  0  0  0  0  0  0  0  0
  -18.7618   -6.5746  -32.5877 H   0  0  0  0  0  0  0  0  0  0  0  0
  -19.8253   -7.6745  -33.4696 H   0  0  0  0  0  0  0  0  0  0  0  0
  -20.1600   -3.4657  -34.2862 H   0  0  0  0  0  0  0  0  0  0  0  0
  -18.9953   -3.9913  -33.0657 H   0  0  0  0  0  0  0  0  0  0  0  0
  -21.7730   -6.8529  -32.3059 H   0  0  0  0  0  0  0  0  0  0  0  0
  -20.5399   -7.2192  -31.0917 H   0  0  0  0  0  0  0  0  0  0  0  0
  -20.9575   -3.1172  -31.9327 H   0  0  0  0  0  0  0  0  0  0  0  0
  -22.0221   -4.1634  -32.8819 H   0  0  0  0  0  0  0  0  0  0  0  0
  -21.9090   -6.5357  -34.5776 H   0  0  0  0  0  0  0  0  0  0  0  0
  -21.6328   -4.9736  -35.3899 H   0  0  0  0  0  0  0  0  0  0  0  0
  -23.7646   -3.6996  -31.5328 H   0  0  0  0  0  0  0  0  0  0  0  0
  -23.3288   -5.3871  -31.8986 H   0  0  0  0  0  0  0  0  0  0  0  0
  -24.6685   -5.0498  -30.8037 H   0  0  0  0  0  0  0  0  0  0  0  0
  -18.8537   -6.2308  -29.2512 H   0  0  0  0  0  0  0  0  0  0  0  0
  -18.7916   -4.7977  -30.3065 H   0  0  0  0  0  0  0  0  0  0  0  0
  -18.4323   -4.6322  -28.5887 H   0  0  0  0  0  0  0  0  0  0  0  0
  -18.2909   -2.1965  -28.0343 H   0  0  0  0  0  0  0  0  0  0  0  0
  -19.0880   -2.1682  -26.4420 H   0  0  0  0  0  0  0  0  0  0  0  0
  -17.3637   -1.8216  -26.5607 H   0  0  0  0  0  0  0  0  0  0  0  0
  -24.6068   -5.0190  -21.9722 H   0  0  0  0  0  0  0  0  0  0  0  0
  -24.4035   -3.2557  -22.1367 H   0  0  0  0  0  0  0  0  0  0  0  0
  -26.8472   -3.8291  -21.9810 H   0  0  0  0  0  0  0  0  0  0  0  0
  -21.0873   -7.0478  -36.8640 H   0  0  0  0  0  0  0  0  0  0  0  0
  -24.5260   -4.7740  -24.6137 H   0  0  0  0  0  0  0  0  0  0  0  0
  -26.1369   -2.1079  -23.2666 H   0  0  0  0  0  0  0  0  0  0  0  0
  1  4  1  0  0  0  0
  1 12  2  0  0  0  0
  2  6  2  0  0  0  0
  2  8  1  0  0  0  0
  3  9  1  0  0  0  0
  3 11  2  0  0  0  0
  4 27  2  0  0  0  0
  5  7  1  0  0  0  0
  5  8  1  0  0  0  0
  5  9  2  0  0  0  0
  6 10  1  0  0  0  0
  6 21  1  0  0  0  0
  7 10  2  0  0  0  0
  7 22  1  0  0  0  0
  8 28  2  0  0  0  0
  9 29  1  0  0  0  0
 10 31  1  0  0  0  0
 11 14  1  0  0  0  0
 11 28  1  0  0  0  0
 12 23  1  0  0  0  0
 12 29  1  0  0  0  0
 13 30  1  0  0  0  0
 13 33  2  0  0  0  0
 13 35  1  0  0  0  0
 14 32  1  0  0  0  0
 14 34  2  0  0  0  0
 15 17  1  0  0  0  0
 15 20  1  0  0  0  0
 16 18  1  0  0  0  0
 16 20  1  0  0  0  0
 17 31  1  0  0  0  0
 18 31  1  0  0  0  0
 19 20  1  0  0  0  0
 19 30  1  0  0  0  0
 20 35  1  0  0  0  0
 24 25  1  0  0  0  0
 24 32  1  0  0  0  0
 25 26  1  0  0  0  0
 25 36  1  0  0  0  0
 26 37  1  0  0  0  0
 26 38  1  0  0  0  0
 26 39  1  0  0  0  0
 27 29  1  0  0  0  0
  1 40  1  0  0  0  0
  2 41  1  0  0  0  0
  3 42  1  0  0  0  0
  4 43  1  0  0  0  0
 15 44  1  0  0  0  0
 15 45  1  0  0  0  0
 16 46  1  0  0  0  0
 16 47  1  0  0  0  0
 17 48  1  0  0  0  0
 17 49  1  0  0  0  0
 18 50  1  0  0  0  0
 18 51  1  0  0  0  0
 19 52  1  0  0  0  0
 19 53  1  0  0  0  0
 21 54  1  0  0  0  0
 21 55  1  0  0  0  0
 21 56  1  0  0  0  0
 22 57  1  0  0  0  0
 22 58  1  0  0  0  0
 22 59  1  0  0  0  0
 23 60  1  0  0  0  0
 23 61  1  0  0  0  0
 23 62  1  0  0  0  0
 24 63  1  0  0  0  0
 24 64  1  0  0  0  0
 25 65  1  0  0  0  0
 30 66  1  0  0  0  0
 32 67  1  0  0  0  0
 36 68  1  0  0  0  0
M  END
> <SMILES>
Cc1cc2nc(cc(c2c(c1N1CCC2(CC1)CNC(=O)O2)C)-n1nccc1C)C(=O)NC[C@@H](O)C(F)(F)F

> <FORMATTED_ID>
H3D-008146

> <MOLFORMULA>
C26H29F3N6O4

> <Exact Mass>
546.22

> <XLogP>
2.01

> <TPSA_NOPS>
121.6

> <s_m_source_file>
ligprep_h3d.sdf

> <i_m_source_file_index>
1169

> <i_lp_mmshare_version>
55123

> <i_f3d_flags>
0

> <s_epik_input>
Tz1DKE8xKVtOSF1bQ0gyXUMxMltDSDJdW0NIMl1OKFtDSDJdW0NIMl0yKWMoYyhbQ0gzXSlbY0hdMyljKFtDSDNdKWMoYzM0KWMoLW41bltjSF1bY0hdYzVbQ0gzXSlbY0hdYyhuNClDKD1PKVtOSF1bQ0gyXVtDQEBIXShbT0hdKUMoRikoRilG

> <s_epik_cmdline>
J2VwaWtfcHl0aG9uJywgJy1waHQnLCAnMC41JywgJy1waCcsICc3LjUnLCAnLXRuJywgJzgnLCAnLW1hJywgJzUwMCcsICctaW1hZScsICc8aW5maWxlLm1hZT4nLCAnLW9tYWUnLCAnPG91dGZpbGUubWFlPic=

> <r_lp_tautomer_probability>
1

> <r_epik_Ionization_Penalty>
0.00516055

> <r_epik_Ionization_Penalty_Charging>
0

> <r_epik_Ionization_Penalty_Neutral>
0.00516055

> <r_epik_State_Penalty>
-0

> <r_epik_Charging_Adjusted_Penalty>
0

> <i_epik_Tot_Q>
0

> <i_epik_Tot_abs_Q>
0

> <s_epik_Chemistry_Notes>
This compound has an ester and may undergo hydrolysis at high or low pH.

> <s_lp_Force_Field>
S-OPLS

> <r_lp_Energy>
55.2634

> <b_lp_Chiralities_Consistent>
1

> <s_lp_Variant>
ligprep_h3d.sdf:1169-1

> <ROCS_ShapeQuery>
_7L13

> <ROCS_TanimotoCombo>
0.720 

> <ROCS_ShapeTanimoto>
0.618 

> <ROCS_ColorTanimoto>
0.102 

> <ROCS_RefTversky>
0.799 

> <ROCS_RefColorTversky>
0.221 

> <ROCS_RefTverskyCombo>
1.020 

> <ROCS_FitTversky>
0.732 

> <ROCS_FitColorTversky>
0.159 

> <ROCS_FitTverskyCombo>
0.891 

> <ROCS_ColorScore>
-2.035

> <ROCS_Overlap>
1333.344

> <ROCS_Rank>
216                 

$$$$
ligprep_h3d.sdf:5320_1235
  -OEChem-08212117123D

 76 82  0     0  0  0  0  0  0999 V2000
  -20.1913   -6.5820  -36.0730 C   0  0  0  0  0  0  0  0  0  0  0  0
  -20.3256   -7.6746  -35.2164 C   0  0  0  0  0  0  0  0  0  0  0  0
  -19.9678   -5.3086  -35.5494 C   0  0  0  0  0  0  0  0  0  0  0  0
  -20.2365   -7.4938  -33.8361 C   0  0  0  0  0  0  0  0  0  0  0  0
  -19.8787   -5.1278  -34.1692 C   0  0  0  0  0  0  0  0  0  0  0  0
  -27.6728   -3.0762  -23.3638 C   0  0  0  0  0  0  0  0  0  0  0  0
  -22.8295   -3.9348  -28.8765 C   0  0  0  0  0  0  0  0  0  0  0  0
  -20.1597   -4.8145  -29.1313 C   0  0  0  0  0  0  0  0  0  0  0  0
  -28.7153   -3.9054  -23.0287 C   0  0  0  0  0  0  0  0  0  0  0  0
  -15.0684   -6.6662  -25.6690 C   0  0  0  0  0  0  0  0  0  0  0  0
  -14.5725   -5.6116  -24.9482 C   0  0  0  0  0  0  0  0  0  0  0  0
  -22.0608   -4.2000  -27.7498 C   0  0  0  0  0  0  0  0  0  0  0  0
  -20.0131   -6.2204  -33.3125 C   0  0  0  0  0  0  0  0  0  0  0  0
  -20.7409   -4.6349  -27.8845 C   0  0  0  0  0  0  0  0  0  0  0  0
  -22.2575   -4.1112  -30.1380 C   0  0  0  0  0  0  0  0  0  0  0  0
  -20.9315   -4.5481  -30.2640 C   0  0  0  0  0  0  0  0  0  0  0  0
  -26.5327   -3.7155  -22.8411 C   0  0  0  0  0  0  0  0  0  0  0  0
  -16.6649   -5.1384  -25.4799 C   0  0  0  0  0  0  0  0  0  0  0  0
  -18.0109   -4.5337  -25.6697 C   0  0  0  0  0  0  0  0  0  0  0  0
  -18.5048   -6.5727  -26.8927 C   0  0  0  0  0  0  0  0  0  0  0  0
  -17.2787   -7.0971  -26.7059 C   0  0  0  0  0  0  0  0  0  0  0  0
  -18.9114   -5.2557  -26.3716 C   0  0  0  0  0  0  0  0  0  0  0  0
  -23.6303   -5.0324  -25.9590 C   0  0  0  0  0  0  0  0  0  0  0  0
  -22.8425   -2.6320  -25.9347 C   0  0  0  0  0  0  0  0  0  0  0  0
  -21.1506   -4.5205  -25.5813 C   0  0  0  0  0  0  0  0  0  0  0  0
  -24.1232   -4.8757  -24.5249 C   0  0  0  0  0  0  0  0  0  0  0  0
  -23.3408   -2.4925  -24.5008 C   0  0  0  0  0  0  0  0  0  0  0  0
  -22.4650   -4.0819  -26.2938 C   0  0  0  0  0  0  0  0  0  0  0  0
  -28.8597   -6.0819  -21.7957 C   0  0  0  0  0  0  0  0  0  0  0  0
  -22.9595   -2.5231  -31.7631 C   0  0  0  0  0  0  0  0  0  0  0  0
  -19.9174   -6.0251  -31.8279 C   0  0  0  0  0  0  0  0  0  0  0  0
  -25.1089   -3.2483  -22.9153 C   0  0  0  0  0  0  0  0  0  0  0  0
  -26.8232   -4.8622  -22.2210 N   0  0  0  0  0  0  0  0  0  0  0  0
  -16.3719   -6.3496  -25.9891 N   0  0  0  0  0  0  0  0  0  0  0  0
  -28.1579   -4.9500  -22.3518 N   0  0  0  0  0  0  0  0  0  0  0  0
  -15.5813   -4.6820  -24.8466 N   0  3  0  0  0  0  0  0  0  0  0  0
  -20.1688   -4.8369  -26.6242 N   0  0  0  0  0  0  0  0  0  0  0  0
  -24.4975   -3.4352  -24.2769 N   0  3  0  0  0  0  0  0  0  0  0  0
  -23.0040   -3.8522  -31.2490 O   0  0  0  0  0  0  0  0  0  0  0  0
  -20.3800   -4.7172  -31.4998 O   0  0  0  0  0  0  0  0  0  0  0  0
  -20.2594   -6.7232  -37.1477 H   0  0  0  0  0  0  0  0  0  0  0  0
  -20.4985   -8.6664  -35.6239 H   0  0  0  0  0  0  0  0  0  0  0  0
  -19.8621   -4.4579  -36.2161 H   0  0  0  0  0  0  0  0  0  0  0  0
  -20.3426   -8.3509  -33.1763 H   0  0  0  0  0  0  0  0  0  0  0  0
  -19.7046   -4.1320  -33.7702 H   0  0  0  0  0  0  0  0  0  0  0  0
  -27.7343   -2.1448  -23.9074 H   0  0  0  0  0  0  0  0  0  0  0  0
  -23.8566   -3.5962  -28.7813 H   0  0  0  0  0  0  0  0  0  0  0  0
  -19.1347   -5.1512  -29.2429 H   0  0  0  0  0  0  0  0  0  0  0  0
  -29.7792   -3.8402  -23.2104 H   0  0  0  0  0  0  0  0  0  0  0  0
  -14.6697   -7.6061  -26.0010 H   0  0  0  0  0  0  0  0  0  0  0  0
  -13.6356   -5.3775  -24.4829 H   0  0  0  0  0  0  0  0  0  0  0  0
  -18.2246   -3.5580  -25.2513 H   0  0  0  0  0  0  0  0  0  0  0  0
  -19.2417   -7.1396  -27.4547 H   0  0  0  0  0  0  0  0  0  0  0  0
  -16.9702   -8.0629  -27.0843 H   0  0  0  0  0  0  0  0  0  0  0  0
  -23.3359   -6.0767  -26.1272 H   0  0  0  0  0  0  0  0  0  0  0  0
  -24.4741   -4.8475  -26.6375 H   0  0  0  0  0  0  0  0  0  0  0  0
  -23.6277   -2.2684  -26.6113 H   0  0  0  0  0  0  0  0  0  0  0  0
  -21.9857   -1.9624  -26.0856 H   0  0  0  0  0  0  0  0  0  0  0  0
  -20.7521   -3.7267  -24.9378 H   0  0  0  0  0  0  0  0  0  0  0  0
  -21.3054   -5.4037  -24.9496 H   0  0  0  0  0  0  0  0  0  0  0  0
  -25.0221   -5.4798  -24.3628 H   0  0  0  0  0  0  0  0  0  0  0  0
  -23.3630   -5.1545  -23.7879 H   0  0  0  0  0  0  0  0  0  0  0  0
  -22.5675   -2.7323  -23.7635 H   0  0  0  0  0  0  0  0  0  0  0  0
  -23.7076   -1.4764  -24.3220 H   0  0  0  0  0  0  0  0  0  0  0  0
  -28.9021   -6.8616  -22.5608 H   0  0  0  0  0  0  0  0  0  0  0  0
  -28.3265   -6.4424  -20.9116 H   0  0  0  0  0  0  0  0  0  0  0  0
  -29.8682   -5.7746  -21.5051 H   0  0  0  0  0  0  0  0  0  0  0  0
  -23.5974   -2.4522  -32.6475 H   0  0  0  0  0  0  0  0  0  0  0  0
  -21.9294   -2.2659  -32.0221 H   0  0  0  0  0  0  0  0  0  0  0  0
  -23.3237   -1.8336  -30.9978 H   0  0  0  0  0  0  0  0  0  0  0  0
  -20.5267   -6.7634  -31.2955 H   0  0  0  0  0  0  0  0  0  0  0  0
  -18.8819   -6.1356  -31.4882 H   0  0  0  0  0  0  0  0  0  0  0  0
  -25.0292   -2.1819  -22.6785 H   0  0  0  0  0  0  0  0  0  0  0  0
  -24.4758   -3.7953  -22.2084 H   0  0  0  0  0  0  0  0  0  0  0  0
  -15.5126   -3.7891  -24.3661 H   0  0  0  0  0  0  0  0  0  0  0  0
  -25.2282   -3.1883  -24.9585 H   0  0  0  0  0  0  0  0  0  0  0  0
  1  2  2  0  0  0  0
  1  3  1  0  0  0  0
  2  4  1  0  0  0  0
  3  5  2  0  0  0  0
  4 13  2  0  0  0  0
  5 13  1  0  0  0  0
  6  9  2  0  0  0  0
  6 17  1  0  0  0  0
  7 12  1  0  0  0  0
  7 15  2  0  0  0  0
  8 14  1  0  0  0  0
  8 16  2  0  0  0  0
  9 35  1  0  0  0  0
 10 11  2  0  0  0  0
 10 34  1  0  0  0  0
 11 36  1  0  0  0  0
 12 14  2  0  0  0  0
 12 28  1  0  0  0  0
 13 31  1  0  0  0  0
 14 37  1  0  0  0  0
 15 16  1  0  0  0  0
 15 39  1  0  0  0  0
 16 40  1  0  0  0  0
 17 32  1  0  0  0  0
 17 33  2  0  0  0  0
 18 19  1  0  0  0  0
 18 34  1  0  0  0  0
 18 36  2  0  0  0  0
 19 22  2  0  0  0  0
 20 21  2  0  0  0  0
 20 22  1  0  0  0  0
 21 34  1  0  0  0  0
 22 37  1  0  0  0  0
 23 26  1  0  0  0  0
 23 28  1  0  0  0  0
 24 27  1  0  0  0  0
 24 28  1  0  0  0  0
 25 28  1  0  0  0  0
 25 37  1  0  0  0  0
 26 38  1  0  0  0  0
 27 38  1  0  0  0  0
 29 35  1  0  0  0  0
 30 39  1  0  0  0  0
 31 40  1  0  0  0  0
 32 38  1  0  0  0  0
 33 35  1  0  0  0  0
  1 41  1  0  0  0  0
  2 42  1  0  0  0  0
  3 43  1  0  0  0  0
  4 44  1  0  0  0  0
  5 45  1  0  0  0  0
  6 46  1  0  0  0  0
  7 47  1  0  0  0  0
  8 48  1  0  0  0  0
  9 49  1  0  0  0  0
 10 50  1  0  0  0  0
 11 51  1  0  0  0  0
 19 52  1  0  0  0  0
 20 53  1  0  0  0  0
 21 54  1  0  0  0  0
 23 55  1  0  0  0  0
 23 56  1  0  0  0  0
 24 57  1  0  0  0  0
 24 58  1  0  0  0  0
 25 59  1  0  0  0  0
 25 60  1  0  0  0  0
 26 61  1  0  0  0  0
 26 62  1  0  0  0  0
 27 63  1  0  0  0  0
 27 64  1  0  0  0  0
 29 65  1  0  0  0  0
 29 66  1  0  0  0  0
 29 67  1  0  0  0  0
 30 68  1  0  0  0  0
 30 69  1  0  0  0  0
 30 70  1  0  0  0  0
 31 71  1  0  0  0  0
 31 72  1  0  0  0  0
 32 73  1  0  0  0  0
 32 74  1  0  0  0  0
 36 75  1  0  0  0  0
 38 76  1  0  0  0  0
M  CHG  2  36   1  38   1
M  END
> <SMILES>
COc1cc2c(cc1OCc1ccccc1)N(CC12CCN(CC1)Cc1ccn(n1)C)c1ccn2ccnc2c1

> <FORMATTED_ID>
H3D-014836

> <MOLFORMULA>
C32H34N6O2

> <Exact Mass>
534.27

> <XLogP>
6.38

> <TPSA_NOPS>
60.1

> <s_m_source_file>
ligprep_h3d.sdf

> <i_m_source_file_index>
5320

> <i_lp_mmshare_version>
55123

> <i_f3d_flags>
0

> <s_epik_input>
W2NIXTFbY0hdW2NIXVtjSF1bY0hdYzFbQ0gyXU9jKGMoW2NIXTIpT1tDSDNdKVtjSF1jKE4oW0NIMl0zKWMoW2NIXVtjSF00KVtjSF1jKG40NSluW2NIXVtjSF01KWMyQzM2W0NIMl1bQ0gyXU4oW0NIMl1bQ0gyXTYpW0NIMl1jN1tjSF1bY0hdbihuNylbQ0gzXQ==

> <s_epik_cmdline>
J2VwaWtfcHl0aG9uJywgJy1waHQnLCAnMC41JywgJy1waCcsICc3LjUnLCAnLXRuJywgJzgnLCAnLW1hJywgJzUwMCcsICctaW1hZScsICc8aW5maWxlLm1hZT4nLCAnLW9tYWUnLCAnPG91dGZpbGUubWFlPic=

> <r_lp_tautomer_probability>
1

> <r_epik_Ionization_Penalty>
0.495306

> <r_epik_Ionization_Penalty_Charging>
0.0979262

> <r_epik_Ionization_Penalty_Neutral>
0.39738

> <r_epik_State_Penalty>
0.460707

> <r_epik_Charging_Adjusted_Penalty>
0.558634

> <i_epik_Tot_Q>
2

> <i_epik_Tot_abs_Q>
2

> <s_lp_Force_Field>
S-OPLS

> <r_lp_Energy>
73.9778

> <b_lp_Chiralities_Consistent>
1

> <s_lp_Variant>
ligprep_h3d.sdf:5320-1

> <ROCS_ShapeQuery>
_7L13

> <ROCS_TanimotoCombo>
0.706 

> <ROCS_ShapeTanimoto>
0.607 

> <ROCS_ColorTanimoto>
0.099 

> <ROCS_RefTversky>
0.799 

> <ROCS_RefColorTversky>
0.225 

> <ROCS_RefTverskyCombo>
1.023 

> <ROCS_FitTversky>
0.716 

> <ROCS_FitColorTversky>
0.151 

> <ROCS_FitTverskyCombo>
0.867 

> <ROCS_ColorScore>
-2.079

> <ROCS_Overlap>
1335.065

> <ROCS_Rank>
217                 

$$$$
ligprep_h3d.sdf:5050_556
  -OEChem-08212117123D

 66 70  0     1  0  0  0  0  0999 V2000
  -22.0342   -5.5257  -32.7999 C   0  0  0  0  0  0  0  0  0  0  0  0
  -20.0634   -4.4102  -33.6418 C   0  0  0  0  0  0  0  0  0  0  0  0
  -23.2859   -4.1855  -24.1803 C   0  0  0  0  0  0  0  0  0  0  0  0
  -25.2738   -5.3719  -24.8713 C   0  0  0  0  0  0  0  0  0  0  0  0
  -21.5865   -6.7287  -33.3458 C   0  0  0  0  0  0  0  0  0  0  0  0
  -19.6156   -5.6132  -34.1876 C   0  0  0  0  0  0  0  0  0  0  0  0
  -23.9489   -3.7407  -23.0365 C   0  0  0  0  0  0  0  0  0  0  0  0
  -25.9368   -4.9271  -23.7275 C   0  0  0  0  0  0  0  0  0  0  0  0
  -17.2293   -5.9673  -25.8823 C   0  0  0  0  0  0  0  0  0  0  0  0
  -17.0386   -3.5647  -26.0499 C   0  0  0  0  0  0  0  0  0  0  0  0
  -15.5389   -4.7981  -24.6123 C   0  0  0  0  0  0  0  0  0  0  0  0
  -21.2727   -4.3664  -32.9480 C   0  0  0  0  0  0  0  0  0  0  0  0
  -17.6656   -4.7553  -26.4173 C   0  0  0  0  0  0  0  0  0  0  0  0
  -23.9484   -5.0011  -25.0977 C   0  0  0  0  0  0  0  0  0  0  0  0
  -20.3772   -6.7724  -34.0396 C   0  0  0  0  0  0  0  0  0  0  0  0
  -25.2743   -4.1115  -22.8101 C   0  0  0  0  0  0  0  0  0  0  0  0
  -16.1659   -5.9887  -24.9797 C   0  0  0  0  0  0  0  0  0  0  0  0
  -15.9752   -3.5861  -25.1474 C   0  0  0  0  0  0  0  0  0  0  0  0
  -22.5942   -3.2561  -31.1125 C   0  0  0  0  0  0  0  0  0  0  0  0
  -22.6459   -4.1523  -28.8010 C   0  0  0  0  0  0  0  0  0  0  0  0
  -19.1852   -5.6909  -28.2778 C   0  0  0  0  0  0  0  0  0  0  0  0
  -19.5366   -3.6648  -27.8154 C   0  0  0  0  0  0  0  0  0  0  0  0
  -20.5822   -4.3864  -30.0595 C   0  0  0  0  0  0  0  0  0  0  0  0
  -21.7500   -5.1449  -28.0723 C   0  0  1  0  0  0  0  0  0  0  0  0
  -20.3605   -4.7351  -28.5851 C   0  0  0  0  0  0  0  0  0  0  0  0
  -22.5548   -2.2619  -33.3901 C   0  0  0  0  0  0  0  0  0  0  0  0
  -21.9352   -5.1259  -26.5665 C   0  0  0  0  0  0  0  0  0  0  0  0
  -21.7602   -3.0553  -32.3526 C   0  0  2  0  0  0  0  0  0  0  0  0
  -18.7337   -4.7334  -27.3248 N   0  0  0  0  0  0  0  0  0  0  0  0
  -21.9604   -3.8989  -30.0614 N   0  0  0  0  0  0  0  0  0  0  0  0
  -20.6881   -2.2478  -31.8097 N   0  0  0  0  0  0  0  0  0  0  0  0
  -23.2844   -5.4464  -26.2431 N   0  0  0  0  0  0  0  0  0  0  0  0
  -23.7586   -2.8547  -31.0738 O   0  0  0  0  0  0  0  0  0  0  0  0
  -19.9399   -7.9467  -34.5710 O   0  0  0  0  0  0  0  0  0  0  0  0
  -25.9110   -3.6844  -21.7117 F   0  0  0  0  0  0  0  0  0  0  0  0
  -15.7461   -7.1530  -24.4676 F   0  0  0  0  0  0  0  0  0  0  0  0
  -15.3719   -2.4430  -24.7961 F   0  0  0  0  0  0  0  0  0  0  0  0
  -22.9775   -5.5007  -32.2611 H   0  0  0  0  0  0  0  0  0  0  0  0
  -19.4635   -3.5118  -33.7621 H   0  0  0  0  0  0  0  0  0  0  0  0
  -22.2529   -3.8907  -24.3467 H   0  0  0  0  0  0  0  0  0  0  0  0
  -25.7997   -6.0069  -25.5797 H   0  0  0  0  0  0  0  0  0  0  0  0
  -22.1841   -7.6285  -33.2268 H   0  0  0  0  0  0  0  0  0  0  0  0
  -18.6728   -5.6408  -34.7265 H   0  0  0  0  0  0  0  0  0  0  0  0
  -23.4334   -3.1059  -22.3219 H   0  0  0  0  0  0  0  0  0  0  0  0
  -26.9689   -5.2153  -23.5509 H   0  0  0  0  0  0  0  0  0  0  0  0
  -17.7101   -6.9008  -26.1624 H   0  0  0  0  0  0  0  0  0  0  0  0
  -17.3699   -2.6148  -26.4615 H   0  0  0  0  0  0  0  0  0  0  0  0
  -14.7101   -4.8157  -23.9107 H   0  0  0  0  0  0  0  0  0  0  0  0
  -23.6101   -4.6051  -29.0509 H   0  0  0  0  0  0  0  0  0  0  0  0
  -22.8271   -3.2233  -28.2567 H   0  0  0  0  0  0  0  0  0  0  0  0
  -19.4528   -6.6464  -27.8073 H   0  0  0  0  0  0  0  0  0  0  0  0
  -18.4617   -5.8704  -29.0811 H   0  0  0  0  0  0  0  0  0  0  0  0
  -18.9798   -2.9522  -28.4262 H   0  0  0  0  0  0  0  0  0  0  0  0
  -20.0718   -3.1468  -27.0146 H   0  0  0  0  0  0  0  0  0  0  0  0
  -19.9359   -3.5649  -30.3864 H   0  0  0  0  0  0  0  0  0  0  0  0
  -20.4663   -5.2329  -30.7423 H   0  0  0  0  0  0  0  0  0  0  0  0
  -22.0068   -6.1907  -28.4333 H   0  0  0  0  0  0  0  0  0  0  0  0
  -22.9161   -1.3113  -32.9803 H   0  0  0  0  0  0  0  0  0  0  0  0
  -23.4257   -2.8290  -33.7399 H   0  0  0  0  0  0  0  0  0  0  0  0
  -21.9456   -2.0254  -34.2709 H   0  0  0  0  0  0  0  0  0  0  0  0
  -21.2542   -5.8652  -26.1487 H   0  0  0  0  0  0  0  0  0  0  0  0
  -21.6860   -4.1232  -26.2238 H   0  0  0  0  0  0  0  0  0  0  0  0
  -20.6683   -1.3735  -32.2875 H   0  0  0  0  0  0  0  0  0  0  0  0
  -20.8543   -2.1021  -30.8380 H   0  0  0  0  0  0  0  0  0  0  0  0
  -23.8208   -6.0408  -26.8806 H   0  0  0  0  0  0  0  0  0  0  0  0
  -19.0894   -7.8166  -35.0200 H   0  0  0  0  0  0  0  0  0  0  0  0
  1  5  1  0  0  0  0
  1 12  2  0  0  0  0
  2  6  2  0  0  0  0
  2 12  1  0  0  0  0
  3  7  1  0  0  0  0
  3 14  2  0  0  0  0
  4  8  2  0  0  0  0
  4 14  1  0  0  0  0
  5 15  2  0  0  0  0
  6 15  1  0  0  0  0
  7 16  2  0  0  0  0
  8 16  1  0  0  0  0
  9 13  2  0  0  0  0
  9 17  1  0  0  0  0
 10 13  1  0  0  0  0
 10 18  2  0  0  0  0
 11 17  2  0  0  0  0
 11 18  1  0  0  0  0
 12 28  1  0  0  0  0
 13 29  1  0  0  0  0
 14 32  1  0  0  0  0
 15 34  1  0  0  0  0
 16 35  1  0  0  0  0
 17 36  1  0  0  0  0
 18 37  1  0  0  0  0
 19 28  1  0  0  0  0
 19 30  1  0  0  0  0
 19 33  2  0  0  0  0
 20 24  1  0  0  0  0
 20 30  1  0  0  0  0
 21 25  1  0  0  0  0
 21 29  1  0  0  0  0
 22 25  1  0  0  0  0
 22 29  1  0  0  0  0
 23 25  1  0  0  0  0
 23 30  1  0  0  0  0
 24 25  1  0  0  0  0
 24 27  1  0  0  0  0
 26 28  1  0  0  0  0
 27 32  1  0  0  0  0
 28 31  1  0  0  0  0
  1 38  1  0  0  0  0
  2 39  1  0  0  0  0
  3 40  1  0  0  0  0
  4 41  1  0  0  0  0
  5 42  1  0  0  0  0
  6 43  1  0  0  0  0
  7 44  1  0  0  0  0
  8 45  1  0  0  0  0
  9 46  1  0  0  0  0
 10 47  1  0  0  0  0
 11 48  1  0  0  0  0
 20 49  1  0  0  0  0
 20 50  1  0  0  0  0
 21 51  1  0  0  0  0
 21 52  1  0  0  0  0
 22 53  1  0  0  0  0
 22 54  1  0  0  0  0
 23 55  1  0  0  0  0
 23 56  1  0  0  0  0
 24 57  1  0  0  0  0
 26 58  1  0  0  0  0
 26 59  1  0  0  0  0
 26 60  1  0  0  0  0
 27 61  1  0  0  0  0
 27 62  1  0  0  0  0
 31 63  1  0  0  0  0
 31 64  1  0  0  0  0
 32 65  1  0  0  0  0
 34 66  1  0  0  0  0
M  END
> <SMILES>
C[C@@](N)(C(=O)N1CC(CNc2ccc(cc2)F)C2(C1)CN(C2)c1cc(cc(c1)F)F)c1ccc(cc1)O

> <FORMATTED_ID>
H3D-009398

> <MOLFORMULA>
C28H29F3N4O2

> <Exact Mass>
510.22

> <XLogP>
3.56

> <TPSA_NOPS>
81.8

> <s_m_source_file>
ligprep_h3d.sdf

> <i_m_source_file_index>
5050

> <i_lp_mmshare_version>
55123

> <i_f3d_flags>
0

> <s_epik_input>
W2NIXTFbY0hdYyhbT0hdKVtjSF1bY0hdYzFbQ0BdKFtDSDNdKShbTkgyXSlDKD1PKU4oW0NIMl0yKVtDSDJdW0NASF0oW0NIMl1bTkhdYzNbY0hdW2NIXWMoRilbY0hdW2NIXTMpQzI0W0NIMl1OKFtDSDJdNCljNVtjSF1jKEYpW2NIXWMoRilbY0hdNQ==

> <s_epik_cmdline>
J2VwaWtfcHl0aG9uJywgJy1waHQnLCAnMC41JywgJy1waCcsICc3LjUnLCAnLXRuJywgJzgnLCAnLW1hJywgJzUwMCcsICctaW1hZScsICc8aW5maWxlLm1hZT4nLCAnLW9tYWUnLCAnPG91dGZpbGUubWFlPic=

> <r_lp_tautomer_probability>
1

> <r_epik_Ionization_Penalty>
0.049981

> <r_epik_Ionization_Penalty_Charging>
0

> <r_epik_Ionization_Penalty_Neutral>
0.049981

> <r_epik_State_Penalty>
-0

> <r_epik_Charging_Adjusted_Penalty>
0

> <i_epik_Tot_Q>
0

> <i_epik_Tot_abs_Q>
0

> <s_lp_Force_Field>
S-OPLS

> <r_lp_Energy>
40.0357

> <b_lp_Chiralities_Consistent>
1

> <s_lp_Variant>
ligprep_h3d.sdf:5050-1

> <ROCS_ShapeQuery>
_7L13

> <ROCS_TanimotoCombo>
0.706 

> <ROCS_ShapeTanimoto>
0.652 

> <ROCS_ColorTanimoto>
0.053 

> <ROCS_RefTversky>
0.799 

> <ROCS_RefColorTversky>
0.112 

> <ROCS_RefTverskyCombo>
0.910 

> <ROCS_FitTversky>
0.781 

> <ROCS_FitColorTversky>
0.093 

> <ROCS_FitTverskyCombo>
0.874 

> <ROCS_ColorScore>
-1.016

> <ROCS_Overlap>
1328.012

> <ROCS_Rank>
218                 

$$$$
ligprep_h3d.sdf:5329_1108
  -OEChem-08212117123D

 69 73  0     0  0  0  0  0  0999 V2000
  -22.8685   -6.4692  -32.5185 C   0  0  0  0  0  0  0  0  0  0  0  0
  -22.7771   -5.3922  -31.6370 C   0  0  0  0  0  0  0  0  0  0  0  0
  -21.8083   -6.7597  -33.3772 C   0  0  0  0  0  0  0  0  0  0  0  0
  -18.3497   -4.2479  -26.6117 C   0  0  0  0  0  0  0  0  0  0  0  0
  -18.8181   -6.0030  -25.0353 C   0  0  0  0  0  0  0  0  0  0  0  0
  -23.6815   -3.7129  -27.7725 C   0  0  0  0  0  0  0  0  0  0  0  0
  -21.0038   -4.1768  -28.5092 C   0  0  0  0  0  0  0  0  0  0  0  0
  -20.5653   -4.8959  -32.4729 C   0  0  0  0  0  0  0  0  0  0  0  0
  -17.0022   -4.4871  -26.3956 C   0  0  0  0  0  0  0  0  0  0  0  0
  -17.4496   -6.1637  -24.8900 C   0  0  0  0  0  0  0  0  0  0  0  0
  -22.7488   -4.1573  -26.8430 C   0  0  0  0  0  0  0  0  0  0  0  0
  -19.2685   -5.0246  -25.9147 C   0  0  0  0  0  0  0  0  0  0  0  0
  -21.4086   -4.3748  -27.1949 C   0  0  0  0  0  0  0  0  0  0  0  0
  -21.6255   -4.6055  -31.6142 C   0  0  0  0  0  0  0  0  0  0  0  0
  -23.2671   -3.5025  -29.0861 C   0  0  0  0  0  0  0  0  0  0  0  0
  -21.9374   -3.7372  -29.4529 C   0  0  0  0  0  0  0  0  0  0  0  0
  -20.6567   -5.9730  -33.3544 C   0  0  0  0  0  0  0  0  0  0  0  0
  -23.0609   -3.1111  -24.5905 C   0  0  0  0  0  0  0  0  0  0  0  0
  -24.1769   -5.3220  -25.0926 C   0  0  0  0  0  0  0  0  0  0  0  0
  -21.6190   -5.1896  -25.0552 C   0  0  0  0  0  0  0  0  0  0  0  0
  -23.3471   -3.3116  -23.1057 C   0  0  0  0  0  0  0  0  0  0  0  0
  -24.4113   -5.5291  -23.6020 C   0  0  0  0  0  0  0  0  0  0  0  0
  -22.9504   -4.4364  -25.3735 C   0  0  0  0  0  0  0  0  0  0  0  0
  -20.5871   -4.8415  -36.3644 C   0  0  0  0  0  0  0  0  0  0  0  0
  -18.7744   -3.7335  -35.1205 C   0  0  0  0  0  0  0  0  0  0  0  0
  -24.9435   -4.3268  -21.4845 C   0  0  0  0  0  0  0  0  0  0  0  0
  -24.3092   -1.6573  -30.1655 C   0  0  0  0  0  0  0  0  0  0  0  0
  -16.5267   -5.4283  -25.5497 N   0  0  0  0  0  0  0  0  0  0  0  0
  -20.6399   -4.8225  -26.0967 N   0  0  0  0  0  0  0  0  0  0  0  0
  -19.3543   -5.0288  -35.5580 N   0  0  0  0  0  0  0  0  0  0  0  0
  -24.5646   -4.1848  -22.9333 N   0  3  0  0  0  0  0  0  0  0  0  0
  -18.0903   -6.2715  -33.6595 O   0  0  0  0  0  0  0  0  0  0  0  0
  -19.6419   -7.5756  -35.1347 O   0  0  0  0  0  0  0  0  0  0  0  0
  -21.5351   -3.5365  -30.7406 O   0  0  0  0  0  0  0  0  0  0  0  0
  -24.1705   -3.0678  -30.0095 O   0  0  0  0  0  0  0  0  0  0  0  0
  -19.3286   -6.3385  -34.4278 S   0  0  0  0  0  0  0  0  0  0  0  0
  -23.7653   -7.0815  -32.5364 H   0  0  0  0  0  0  0  0  0  0  0  0
  -23.6063   -5.1709  -30.9708 H   0  0  0  0  0  0  0  0  0  0  0  0
  -21.8895   -7.6018  -34.0592 H   0  0  0  0  0  0  0  0  0  0  0  0
  -18.6682   -3.4768  -27.3051 H   0  0  0  0  0  0  0  0  0  0  0  0
  -19.5078   -6.6263  -24.4760 H   0  0  0  0  0  0  0  0  0  0  0  0
  -24.7112   -3.5273  -27.4844 H   0  0  0  0  0  0  0  0  0  0  0  0
  -19.9738   -4.3540  -28.8053 H   0  0  0  0  0  0  0  0  0  0  0  0
  -19.6698   -4.2793  -32.4515 H   0  0  0  0  0  0  0  0  0  0  0  0
  -16.2453   -3.9085  -26.9151 H   0  0  0  0  0  0  0  0  0  0  0  0
  -17.0467   -6.9134  -24.2168 H   0  0  0  0  0  0  0  0  0  0  0  0
  -23.8645   -2.4954  -25.0180 H   0  0  0  0  0  0  0  0  0  0  0  0
  -22.1420   -2.5201  -24.6985 H   0  0  0  0  0  0  0  0  0  0  0  0
  -24.0690   -6.2984  -25.5821 H   0  0  0  0  0  0  0  0  0  0  0  0
  -25.0793   -4.8705  -25.5258 H   0  0  0  0  0  0  0  0  0  0  0  0
  -21.2296   -4.9506  -24.0595 H   0  0  0  0  0  0  0  0  0  0  0  0
  -21.7730   -6.2774  -25.0922 H   0  0  0  0  0  0  0  0  0  0  0  0
  -22.5155   -3.7930  -22.5813 H   0  0  0  0  0  0  0  0  0  0  0  0
  -23.5636   -2.3505  -22.6271 H   0  0  0  0  0  0  0  0  0  0  0  0
  -25.3395   -6.0857  -23.4351 H   0  0  0  0  0  0  0  0  0  0  0  0
  -23.5806   -6.0529  -23.1170 H   0  0  0  0  0  0  0  0  0  0  0  0
  -20.9812   -5.8231  -36.6661 H   0  0  0  0  0  0  0  0  0  0  0  0
  -21.3414   -4.3126  -35.7633 H   0  0  0  0  0  0  0  0  0  0  0  0
  -20.3520   -4.2495  -37.2613 H   0  0  0  0  0  0  0  0  0  0  0  0
  -17.8662   -3.9191  -34.5283 H   0  0  0  0  0  0  0  0  0  0  0  0
  -18.5192   -3.1293  -36.0035 H   0  0  0  0  0  0  0  0  0  0  0  0
  -19.5086   -3.1924  -34.5055 H   0  0  0  0  0  0  0  0  0  0  0  0
  -24.1238   -4.8350  -20.9733 H   0  0  0  0  0  0  0  0  0  0  0  0
  -25.0977   -3.3248  -21.0796 H   0  0  0  0  0  0  0  0  0  0  0  0
  -25.8616   -4.9155  -21.4354 H   0  0  0  0  0  0  0  0  0  0  0  0
  -25.0598   -1.4467  -30.9311 H   0  0  0  0  0  0  0  0  0  0  0  0
  -23.3476   -1.2254  -30.4543 H   0  0  0  0  0  0  0  0  0  0  0  0
  -24.6300   -1.2243  -29.2151 H   0  0  0  0  0  0  0  0  0  0  0  0
  -25.3509   -3.7044  -23.3921 H   0  0  0  0  0  0  0  0  0  0  0  0
  1  2  1  0  0  0  0
  1  3  2  0  0  0  0
  2 14  2  0  0  0  0
  3 17  1  0  0  0  0
  4  9  1  0  0  0  0
  4 12  2  0  0  0  0
  5 10  2  0  0  0  0
  5 12  1  0  0  0  0
  6 11  1  0  0  0  0
  6 15  2  0  0  0  0
  7 13  1  0  0  0  0
  7 16  2  0  0  0  0
  8 14  1  0  0  0  0
  8 17  2  0  0  0  0
  9 28  2  0  0  0  0
 10 28  1  0  0  0  0
 11 13  2  0  0  0  0
 11 23  1  0  0  0  0
 12 29  1  0  0  0  0
 13 29  1  0  0  0  0
 14 34  1  0  0  0  0
 15 16  1  0  0  0  0
 15 35  1  0  0  0  0
 16 34  1  0  0  0  0
 17 36  1  0  0  0  0
 18 21  1  0  0  0  0
 18 23  1  0  0  0  0
 19 22  1  0  0  0  0
 19 23  1  0  0  0  0
 20 23  1  0  0  0  0
 20 29  1  0  0  0  0
 21 31  1  0  0  0  0
 22 31  1  0  0  0  0
 24 30  1  0  0  0  0
 25 30  1  0  0  0  0
 26 31  1  0  0  0  0
 27 35  1  0  0  0  0
 30 36  1  0  0  0  0
 32 36  2  0  0  0  0
 33 36  2  0  0  0  0
  1 37  1  0  0  0  0
  2 38  1  0  0  0  0
  3 39  1  0  0  0  0
  4 40  1  0  0  0  0
  5 41  1  0  0  0  0
  6 42  1  0  0  0  0
  7 43  1  0  0  0  0
  8 44  1  0  0  0  0
  9 45  1  0  0  0  0
 10 46  1  0  0  0  0
 18 47  1  0  0  0  0
 18 48  1  0  0  0  0
 19 49  1  0  0  0  0
 19 50  1  0  0  0  0
 20 51  1  0  0  0  0
 20 52  1  0  0  0  0
 21 53  1  0  0  0  0
 21 54  1  0  0  0  0
 22 55  1  0  0  0  0
 22 56  1  0  0  0  0
 24 57  1  0  0  0  0
 24 58  1  0  0  0  0
 24 59  1  0  0  0  0
 25 60  1  0  0  0  0
 25 61  1  0  0  0  0
 25 62  1  0  0  0  0
 26 63  1  0  0  0  0
 26 64  1  0  0  0  0
 26 65  1  0  0  0  0
 27 66  1  0  0  0  0
 27 67  1  0  0  0  0
 27 68  1  0  0  0  0
 31 69  1  0  0  0  0
M  CHG  1  31   1
M  END
> <SMILES>
COc1cc2c(cc1Oc1cccc(c1)S(=O)(=O)N(C)C)N(CC12CCN(C)CC1)c1ccncc1

> <FORMATTED_ID>
H3D-014925

> <MOLFORMULA>
C27H32N4O4S

> <Exact Mass>
508.21

> <XLogP>
3.85

> <TPSA_NOPS>
83.6

> <s_m_source_file>
ligprep_h3d.sdf

> <i_m_source_file_index>
5329

> <i_lp_mmshare_version>
55123

> <i_f3d_flags>
0

> <s_epik_input>
W0NIMl0xW0NIMl1OKFtDSDNdKVtDSDJdW0NIMl1DMTJjM2MoTihbQ0gyXTIpYzRbY0hdW2NIXW5bY0hdW2NIXTQpW2NIXWMoYyhbY0hdMylPW0NIM10pT2M1W2NIXVtjSF1bY0hdYyhbY0hdNSlTKD1PKSg9TylOKFtDSDNdKVtDSDNd

> <s_epik_cmdline>
J2VwaWtfcHl0aG9uJywgJy1waHQnLCAnMC41JywgJy1waCcsICc3LjUnLCAnLXRuJywgJzgnLCAnLW1hJywgJzUwMCcsICctaW1hZScsICc8aW5maWxlLm1hZT4nLCAnLW9tYWUnLCAnPG91dGZpbGUubWFlPic=

> <r_lp_tautomer_probability>
1

> <r_epik_Ionization_Penalty>
0.130098

> <r_epik_Ionization_Penalty_Charging>
0.00689193

> <r_epik_Ionization_Penalty_Neutral>
0.123206

> <r_epik_State_Penalty>
0.112704

> <r_epik_Charging_Adjusted_Penalty>
0.119596

> <i_epik_Tot_Q>
1

> <i_epik_Tot_abs_Q>
1

> <s_lp_Force_Field>
S-OPLS

> <r_lp_Energy>
78.3544

> <b_lp_Chiralities_Consistent>
1

> <s_lp_Variant>
ligprep_h3d.sdf:5329-1

> <ROCS_ShapeQuery>
_7L13

> <ROCS_TanimotoCombo>
0.773 

> <ROCS_ShapeTanimoto>
0.676 

> <ROCS_ColorTanimoto>
0.098 

> <ROCS_RefTversky>
0.799 

> <ROCS_RefColorTversky>
0.205 

> <ROCS_RefTverskyCombo>
1.003 

> <ROCS_FitTversky>
0.814 

> <ROCS_FitColorTversky>
0.158 

> <ROCS_FitTverskyCombo>
0.972 

> <ROCS_ColorScore>
-1.872

> <ROCS_Overlap>
1324.605

> <ROCS_Rank>
219                 

$$$$
ligprep_h3d.sdf:766_18
  -OEChem-08212117123D

 55 61  0     1  0  0  0  0  0999 V2000
  -20.7295   -4.8909  -29.9928 C   0  0  0  0  0  0  0  0  0  0  0  0
  -20.7346   -3.9688  -23.2812 C   0  0  0  0  0  0  0  0  0  0  0  0
  -21.6010   -4.2645  -30.8858 C   0  0  0  0  0  0  0  0  0  0  0  0
  -20.9933   -4.8044  -28.6031 C   0  0  0  0  0  0  0  0  0  0  0  0
  -22.1322   -4.1395  -28.0889 C   0  0  0  0  0  0  0  0  0  0  0  0
  -22.6880   -3.5898  -30.3759 C   0  0  0  0  0  0  0  0  0  0  0  0
  -22.9876   -3.4971  -29.0169 C   0  0  0  0  0  0  0  0  0  0  0  0
  -21.5577   -4.1897  -24.3612 C   0  0  0  0  0  0  0  0  0  0  0  0
  -21.7192   -4.0884  -32.2770 C   0  0  0  0  0  0  0  0  0  0  0  0
  -19.1748   -5.8744  -25.4102 C   0  0  0  0  0  0  0  0  0  0  0  0
  -19.3403   -3.4923  -26.3029 C   0  0  0  0  0  0  0  0  0  0  0  0
  -17.2159   -4.6669  -25.7764 C   0  0  0  0  0  0  0  0  0  0  0  0
  -20.5665   -5.9498  -33.4014 C   0  0  0  0  0  0  0  0  0  0  0  0
  -20.0121   -5.4784  -27.6798 C   0  0  0  0  0  0  0  0  0  0  0  0
  -23.5881   -3.4024  -26.2093 C   0  0  0  0  0  0  0  0  0  0  0  0
  -19.7411   -4.8407  -35.2120 C   0  0  0  0  0  0  0  0  0  0  0  0
  -21.4648   -4.7773  -25.7431 C   0  0  2  0  0  0  0  0  0  0  0  0
  -23.9494   -3.6892  -24.7386 C   0  0  1  0  0  0  0  0  0  0  0  0
  -20.0777   -3.8120  -34.1503 C   0  0  2  0  0  0  0  0  0  0  0  0
  -19.9929   -4.8694  -26.2592 C   0  0  1  0  0  0  0  0  0  0  0  0
  -24.7379   -4.9898  -24.5816 C   0  0  0  0  0  0  0  0  0  0  0  0
  -18.8214   -3.2307  -33.5053 C   0  0  0  0  0  0  0  0  0  0  0  0
  -21.4459   -3.3750  -22.2691 N   0  0  0  0  0  0  0  0  0  0  0  0
  -22.7913   -3.3616  -32.6066 N   0  0  0  0  0  0  0  0  0  0  0  0
  -22.6976   -3.2147  -22.6849 N   0  0  0  0  0  0  0  0  0  0  0  0
  -17.8452   -5.8113  -25.5082 N   0  5  0  0  0  0  0  0  0  0  0  0
  -22.7533   -3.7044  -23.9288 N   0  0  0  0  0  0  0  0  0  0  0  0
  -17.9771   -3.5442  -26.0942 N   0  0  0  0  0  0  0  0  0  0  0  0
  -22.3826   -4.1061  -26.7098 N   0  0  3  0  0  0  0  0  0  0  0  0
  -20.8435   -4.5986  -33.2151 N   0  0  0  0  0  0  0  0  0  0  0  0
  -19.7506   -6.7594  -24.7751 O   0  0  0  0  0  0  0  0  0  0  0  0
  -19.9378   -2.4471  -26.5460 O   0  0  0  0  0  0  0  0  0  0  0  0
  -15.9868   -4.5586  -25.7544 O   0  0  0  0  0  0  0  0  0  0  0  0
  -20.9311   -6.8944  -32.7134 O   0  0  0  0  0  0  0  0  0  0  0  0
  -23.4025   -3.0454  -31.3987 O   0  0  0  0  0  0  0  0  0  0  0  0
  -19.7775   -6.0942  -34.5203 O   0  0  0  0  0  0  0  0  0  0  0  0
  -24.1121   -2.8616  -28.6585 F   0  0  0  0  0  0  0  0  0  0  0  0
  -19.8644   -5.4380  -30.3557 H   0  0  0  0  0  0  0  0  0  0  0  0
  -19.6855   -4.1899  -23.1695 H   0  0  0  0  0  0  0  0  0  0  0  0
  -20.2991   -6.5281  -27.6380 H   0  0  0  0  0  0  0  0  0  0  0  0
  -19.0198   -5.4199  -28.1226 H   0  0  0  0  0  0  0  0  0  0  0  0
  -24.4385   -3.6467  -26.8797 H   0  0  0  0  0  0  0  0  0  0  0  0
  -23.4465   -2.3062  -26.2546 H   0  0  0  0  0  0  0  0  0  0  0  0
  -20.4907   -4.8707  -36.0102 H   0  0  0  0  0  0  0  0  0  0  0  0
  -18.7513   -4.7002  -35.6563 H   0  0  0  0  0  0  0  0  0  0  0  0
  -21.8734   -5.8140  -25.6283 H   0  0  0  0  0  0  0  0  0  0  0  0
  -24.5549   -2.8643  -24.3368 H   0  0  0  0  0  0  0  0  0  0  0  0
  -20.6917   -3.0038  -34.5627 H   0  0  0  0  0  0  0  0  0  0  0  0
  -24.1550   -5.8198  -24.9739 H   0  0  0  0  0  0  0  0  0  0  0  0
  -25.6745   -4.9174  -25.1293 H   0  0  0  0  0  0  0  0  0  0  0  0
  -24.9490   -5.1640  -23.5291 H   0  0  0  0  0  0  0  0  0  0  0  0
  -18.2112   -4.0339  -33.0955 H   0  0  0  0  0  0  0  0  0  0  0  0
  -19.0998   -2.5495  -32.7027 H   0  0  0  0  0  0  0  0  0  0  0  0
  -18.2419   -2.6869  -34.2497 H   0  0  0  0  0  0  0  0  0  0  0  0
  -17.4654   -2.6816  -26.2408 H   0  0  0  0  0  0  0  0  0  0  0  0
  1  3  2  0  0  0  0
  1  4  1  0  0  0  0
  2  8  2  0  0  0  0
  2 23  1  0  0  0  0
  3  6  1  0  0  0  0
  3  9  1  0  0  0  0
  4  5  2  0  0  0  0
  4 14  1  0  0  0  0
  5  7  1  0  0  0  0
  5 29  1  0  0  0  0
  6  7  2  0  0  0  0
  6 35  1  0  0  0  0
  7 37  1  0  0  0  0
  8 17  1  0  0  0  0
  8 27  1  0  0  0  0
  9 24  2  0  0  0  0
  9 30  1  0  0  0  0
 10 20  1  0  0  0  0
 10 26  1  0  0  0  0
 10 31  2  0  0  0  0
 11 20  1  0  0  0  0
 11 28  1  0  0  0  0
 11 32  2  0  0  0  0
 12 26  1  0  0  0  0
 12 28  1  0  0  0  0
 12 33  2  0  0  0  0
 13 30  1  0  0  0  0
 13 34  2  0  0  0  0
 13 36  1  0  0  0  0
 14 20  1  0  0  0  0
 15 18  1  0  0  0  0
 15 29  1  0  0  0  0
 16 19  1  0  0  0  0
 16 36  1  0  0  0  0
 17 20  1  0  0  0  0
 17 29  1  0  0  0  0
 18 21  1  0  0  0  0
 18 27  1  0  0  0  0
 19 22  1  0  0  0  0
 19 30  1  0  0  0  0
 23 25  2  0  0  0  0
 24 35  1  0  0  0  0
 25 27  1  0  0  0  0
  1 38  1  0  0  0  0
  2 39  1  0  0  0  0
 14 40  1  0  0  0  0
 14 41  1  0  0  0  0
 15 42  1  0  0  0  0
 15 43  1  0  0  0  0
 16 44  1  0  0  0  0
 16 45  1  0  0  0  0
 17 46  1  0  0  0  0
 18 47  1  0  0  0  0
 19 48  1  0  0  0  0
 21 49  1  0  0  0  0
 21 50  1  0  0  0  0
 21 51  1  0  0  0  0
 22 52  1  0  0  0  0
 22 53  1  0  0  0  0
 22 54  1  0  0  0  0
 28 55  1  0  0  0  0
M  CHG  1  26  -1
M  END
> <SMILES>
C[C@H]1COC(=O)N1c1noc2c(c3c(cc12)CC1([C@@H]2N3C[C@@H](C)n3nncc32)C(=O)NC(=O)NC1=O)F

> <FORMATTED_ID>
H3D-005088

> <MOLFORMULA>
C22H19FN8O6

> <Exact Mass>
510.14

> <XLogP>
-0.39

> <TPSA_NOPS>
165.1

> <s_m_source_file>
ligprep_h3d.sdf

> <i_m_source_file_index>
766

> <i_lp_mmshare_version>
55123

> <i_f3d_flags>
0

> <s_epik_input>
W0NIM11bQ0BIXTFbQ0gyXU9DKD1PKU4xYzJub2MoYzNGKWMyW2NIXWMoW0NIMl00KWMzTihbQ0gyXVtDQEBIXShbQ0gzXSluNWM2W2NIXW5uNSlbQ0BIXTZDNDdDKD1PKVtOSF1DKD1PKVtOSF1DNz1P

> <s_epik_cmdline>
J2VwaWtfcHl0aG9uJywgJy1waHQnLCAnMC41JywgJy1waCcsICc3LjUnLCAnLXRuJywgJzgnLCAnLW1hJywgJzUwMCcsICctaW1hZScsICc8aW5maWxlLm1hZT4nLCAnLW9tYWUnLCAnPG91dGZpbGUubWFlPic=

> <r_lp_tautomer_probability>
1

> <r_epik_Ionization_Penalty>
0.185446

> <r_epik_Ionization_Penalty_Charging>
0.185366

> <r_epik_Ionization_Penalty_Neutral>
8.05645e-05

> <r_epik_State_Penalty>
0.174933

> <r_epik_Charging_Adjusted_Penalty>
0.360298

> <i_epik_Tot_Q>
-1

> <i_epik_Tot_abs_Q>
1

> <s_epik_Chemistry_Notes>
This compound has an ester and may undergo hydrolysis at high or low pH.

> <s_lp_Force_Field>
S-OPLS

> <r_lp_Energy>
44.7176

> <b_lp_Chiralities_Consistent>
1

> <s_lp_Variant>
ligprep_h3d.sdf:766-1

> <ROCS_ShapeQuery>
_7L13

> <ROCS_TanimotoCombo>
0.736 

> <ROCS_ShapeTanimoto>
0.624 

> <ROCS_ColorTanimoto>
0.112 

> <ROCS_RefTversky>
0.798 

> <ROCS_RefColorTversky>
0.283 

> <ROCS_RefTverskyCombo>
1.081 

> <ROCS_FitTversky>
0.740 

> <ROCS_FitColorTversky>
0.157 

> <ROCS_FitTverskyCombo>
0.897 

> <ROCS_ColorScore>
-2.666

> <ROCS_Overlap>
1331.799

> <ROCS_Rank>
220                 

$$$$
ligprep_h3d.sdf:5325_1591
  -OEChem-08212117123D

 73 78  0     0  0  0  0  0  0999 V2000
  -18.7905   -6.9716  -35.4290 C   0  0  0  0  0  0  0  0  0  0  0  0
  -19.8854   -7.7273  -35.0098 C   0  0  0  0  0  0  0  0  0  0  0  0
  -18.5859   -5.6930  -34.9102 C   0  0  0  0  0  0  0  0  0  0  0  0
  -20.7758   -7.2045  -34.0720 C   0  0  0  0  0  0  0  0  0  0  0  0
  -19.4762   -5.1702  -33.9724 C   0  0  0  0  0  0  0  0  0  0  0  0
  -23.0335   -3.8510  -28.8206 C   0  0  0  0  0  0  0  0  0  0  0  0
  -20.3998   -4.6945  -29.3542 C   0  0  0  0  0  0  0  0  0  0  0  0
  -15.0293   -6.8748  -26.4435 C   0  0  0  0  0  0  0  0  0  0  0  0
  -14.4353   -5.8614  -25.7380 C   0  0  0  0  0  0  0  0  0  0  0  0
  -22.1617   -4.1709  -27.7866 C   0  0  0  0  0  0  0  0  0  0  0  0
  -20.5712   -5.9259  -33.5533 C   0  0  0  0  0  0  0  0  0  0  0  0
  -20.8501   -4.5893  -28.0432 C   0  0  0  0  0  0  0  0  0  0  0  0
  -22.5772   -3.9486  -30.1344 C   0  0  0  0  0  0  0  0  0  0  0  0
  -21.2686   -4.3690  -30.3996 C   0  0  0  0  0  0  0  0  0  0  0  0
  -16.5515   -5.3091  -26.0561 C   0  0  0  0  0  0  0  0  0  0  0  0
  -17.8891   -4.6594  -26.0993 C   0  0  0  0  0  0  0  0  0  0  0  0
  -18.5593   -6.6383  -27.3370 C   0  0  0  0  0  0  0  0  0  0  0  0
  -17.3386   -7.2043  -27.2829 C   0  0  0  0  0  0  0  0  0  0  0  0
  -18.8734   -5.3294  -26.7373 C   0  0  0  0  0  0  0  0  0  0  0  0
  -23.3793   -2.9008  -24.3115 C   0  0  0  0  0  0  0  0  0  0  0  0
  -23.7678   -5.3981  -24.4692 C   0  0  0  0  0  0  0  0  0  0  0  0
  -23.0251   -2.8568  -25.7989 C   0  0  0  0  0  0  0  0  0  0  0  0
  -23.3727   -5.3675  -25.9485 C   0  0  0  0  0  0  0  0  0  0  0  0
  -20.9905   -4.4194  -25.7464 C   0  0  0  0  0  0  0  0  0  0  0  0
  -24.3348   -4.0543  -24.0217 C   0  0  0  0  0  0  0  0  0  0  0  0
  -22.4346   -4.1902  -26.3006 C   0  0  0  0  0  0  0  0  0  0  0  0
  -23.4265   -2.2828  -31.6040 C   0  0  0  0  0  0  0  0  0  0  0  0
  -21.5287   -5.3627  -32.5445 C   0  0  0  0  0  0  0  0  0  0  0  0
  -25.8609   -4.7955  -22.1886 C   0  0  0  0  0  0  0  0  0  0  0  0
  -25.9993   -4.8107  -20.6791 C   0  0  0  0  0  0  0  0  0  0  0  0
  -16.3460   -6.5094  -26.6298 N   0  0  0  0  0  0  0  0  0  0  0  0
  -15.3999   -4.9072  -25.5121 N   0  3  0  0  0  0  0  0  0  0  0  0
  -20.1406   -4.8635  -26.8580 N   0  0  0  0  0  0  0  0  0  0  0  0
  -24.5965   -4.1062  -22.5587 N   0  3  0  0  0  0  0  0  0  0  0  0
  -26.0612   -3.4762  -20.1934 O   0  0  0  0  0  0  0  0  0  0  0  0
  -23.4214   -3.6372  -31.1583 O   0  0  0  0  0  0  0  0  0  0  0  0
  -20.8266   -4.4669  -31.6861 O   0  0  0  0  0  0  0  0  0  0  0  0
  -18.0966   -7.3794  -36.1582 H   0  0  0  0  0  0  0  0  0  0  0  0
  -20.0443   -8.7233  -35.4128 H   0  0  0  0  0  0  0  0  0  0  0  0
  -17.7329   -5.1048  -35.2355 H   0  0  0  0  0  0  0  0  0  0  0  0
  -21.6262   -7.8004  -33.7514 H   0  0  0  0  0  0  0  0  0  0  0  0
  -19.3089   -4.1731  -33.5738 H   0  0  0  0  0  0  0  0  0  0  0  0
  -24.0530   -3.5414  -28.6139 H   0  0  0  0  0  0  0  0  0  0  0  0
  -19.3883   -5.0177  -29.5798 H   0  0  0  0  0  0  0  0  0  0  0  0
  -14.6934   -7.8135  -26.8419 H   0  0  0  0  0  0  0  0  0  0  0  0
  -13.4523   -5.6713  -25.3548 H   0  0  0  0  0  0  0  0  0  0  0  0
  -18.0318   -3.6934  -25.6310 H   0  0  0  0  0  0  0  0  0  0  0  0
  -19.3628   -7.1633  -27.8460 H   0  0  0  0  0  0  0  0  0  0  0  0
  -17.0976   -8.1646  -27.7199 H   0  0  0  0  0  0  0  0  0  0  0  0
  -22.4619   -3.0036  -23.7188 H   0  0  0  0  0  0  0  0  0  0  0  0
  -23.8404   -1.9480  -24.0246 H   0  0  0  0  0  0  0  0  0  0  0  0
  -24.5110   -6.1900  -24.3145 H   0  0  0  0  0  0  0  0  0  0  0  0
  -22.8949   -5.6645  -23.8613 H   0  0  0  0  0  0  0  0  0  0  0  0
  -23.9363   -2.6132  -26.3612 H   0  0  0  0  0  0  0  0  0  0  0  0
  -22.3274   -2.0299  -25.9838 H   0  0  0  0  0  0  0  0  0  0  0  0
  -22.9096   -6.3260  -26.2172 H   0  0  0  0  0  0  0  0  0  0  0  0
  -24.2921   -5.2979  -26.5459 H   0  0  0  0  0  0  0  0  0  0  0  0
  -20.5723   -3.4851  -25.3484 H   0  0  0  0  0  0  0  0  0  0  0  0
  -20.9699   -5.1523  -24.9322 H   0  0  0  0  0  0  0  0  0  0  0  0
  -25.3057   -3.8736  -24.4972 H   0  0  0  0  0  0  0  0  0  0  0  0
  -24.1419   -2.1704  -32.4224 H   0  0  0  0  0  0  0  0  0  0  0  0
  -22.4246   -2.0054  -31.9410 H   0  0  0  0  0  0  0  0  0  0  0  0
  -23.7216   -1.6366  -30.7739 H   0  0  0  0  0  0  0  0  0  0  0  0
  -22.3430   -4.8206  -33.0374 H   0  0  0  0  0  0  0  0  0  0  0  0
  -21.9730   -6.1629  -31.9428 H   0  0  0  0  0  0  0  0  0  0  0  0
  -26.6686   -4.2376  -22.6709 H   0  0  0  0  0  0  0  0  0  0  0  0
  -25.7988   -5.8067  -22.5993 H   0  0  0  0  0  0  0  0  0  0  0  0
  -26.9278   -5.3163  -20.3961 H   0  0  0  0  0  0  0  0  0  0  0  0
  -25.1591   -5.3248  -20.2010 H   0  0  0  0  0  0  0  0  0  0  0  0
  -15.2585   -4.0343  -25.0111 H   0  0  0  0  0  0  0  0  0  0  0  0
  -23.8081   -4.5748  -22.0918 H   0  0  0  0  0  0  0  0  0  0  0  0
  -24.6133   -3.1473  -22.1853 H   0  0  0  0  0  0  0  0  0  0  0  0
  -26.1491   -3.5334  -19.2282 H   0  0  0  0  0  0  0  0  0  0  0  0
  1  2  2  0  0  0  0
  1  3  1  0  0  0  0
  2  4  1  0  0  0  0
  3  5  2  0  0  0  0
  4 11  2  0  0  0  0
  5 11  1  0  0  0  0
  6 10  1  0  0  0  0
  6 13  2  0  0  0  0
  7 12  1  0  0  0  0
  7 14  2  0  0  0  0
  8  9  2  0  0  0  0
  8 31  1  0  0  0  0
  9 32  1  0  0  0  0
 10 12  2  0  0  0  0
 10 26  1  0  0  0  0
 11 28  1  0  0  0  0
 12 33  1  0  0  0  0
 13 14  1  0  0  0  0
 13 36  1  0  0  0  0
 14 37  1  0  0  0  0
 15 16  1  0  0  0  0
 15 31  1  0  0  0  0
 15 32  2  0  0  0  0
 16 19  2  0  0  0  0
 17 18  2  0  0  0  0
 17 19  1  0  0  0  0
 18 31  1  0  0  0  0
 19 33  1  0  0  0  0
 20 22  1  0  0  0  0
 20 25  1  0  0  0  0
 21 23  1  0  0  0  0
 21 25  1  0  0  0  0
 22 26  1  0  0  0  0
 23 26  1  0  0  0  0
 24 26  1  0  0  0  0
 24 33  1  0  0  0  0
 25 34  1  0  0  0  0
 27 36  1  0  0  0  0
 28 37  1  0  0  0  0
 29 30  1  0  0  0  0
 29 34  1  0  0  0  0
 30 35  1  0  0  0  0
  1 38  1  0  0  0  0
  2 39  1  0  0  0  0
  3 40  1  0  0  0  0
  4 41  1  0  0  0  0
  5 42  1  0  0  0  0
  6 43  1  0  0  0  0
  7 44  1  0  0  0  0
  8 45  1  0  0  0  0
  9 46  1  0  0  0  0
 16 47  1  0  0  0  0
 17 48  1  0  0  0  0
 18 49  1  0  0  0  0
 20 50  1  0  0  0  0
 20 51  1  0  0  0  0
 21 52  1  0  0  0  0
 21 53  1  0  0  0  0
 22 54  1  0  0  0  0
 22 55  1  0  0  0  0
 23 56  1  0  0  0  0
 23 57  1  0  0  0  0
 24 58  1  0  0  0  0
 24 59  1  0  0  0  0
 25 60  1  0  0  0  0
 27 61  1  0  0  0  0
 27 62  1  0  0  0  0
 27 63  1  0  0  0  0
 28 64  1  0  0  0  0
 28 65  1  0  0  0  0
 29 66  1  0  0  0  0
 29 67  1  0  0  0  0
 30 68  1  0  0  0  0
 30 69  1  0  0  0  0
 32 70  1  0  0  0  0
 34 71  1  0  0  0  0
 34 72  1  0  0  0  0
 35 73  1  0  0  0  0
M  CHG  2  32   1  34   1
M  END
> <SMILES>
COc1cc2c(cc1OCc1ccccc1)N(CC12CCC(CC1)NCCO)c1ccn2ccnc2c1

> <FORMATTED_ID>
H3D-014893

> <MOLFORMULA>
C30H34N4O3

> <Exact Mass>
498.26

> <XLogP>
5.93

> <TPSA_NOPS>
71.3

> <s_m_source_file>
ligprep_h3d.sdf

> <i_m_source_file_index>
5325

> <i_lp_mmshare_version>
55123

> <i_f3d_flags>
0

> <s_epik_input>
W2NIXTFbY0hdW2NIXVtjSF1bY0hdYzFbQ0gyXU9jKGMoW2NIXTIpT1tDSDNdKVtjSF1jKE4oW0NIMl0zKWMoW2NIXVtjSF00KVtjSF1jKG40NSluW2NIXVtjSF01KWMyW0NAXTM2W0NIMl1bQ0gyXVtDQEhdKFtDSDJdW0NIMl02KVtOSF1bQ0gyXVtDSDJdW09IXQ==

> <s_epik_cmdline>
J2VwaWtfcHl0aG9uJywgJy1waHQnLCAnMC41JywgJy1waCcsICc3LjUnLCAnLXRuJywgJzgnLCAnLW1hJywgJzUwMCcsICctaW1hZScsICc8aW5maWxlLm1hZT4nLCAnLW9tYWUnLCAnPG91dGZpbGUubWFlPic=

> <r_lp_tautomer_probability>
1

> <r_epik_Ionization_Penalty>
0.344977

> <r_epik_Ionization_Penalty_Charging>
0.00646815

> <r_epik_Ionization_Penalty_Neutral>
0.338508

> <r_epik_State_Penalty>
0.334022

> <r_epik_Charging_Adjusted_Penalty>
0.34049

> <i_epik_Tot_Q>
2

> <i_epik_Tot_abs_Q>
2

> <s_lp_Force_Field>
S-OPLS

> <r_lp_Energy>
76.531

> <b_lp_Chiralities_Consistent>
1

> <s_lp_Variant>
ligprep_h3d.sdf:5325-1

> <ROCS_ShapeQuery>
_7L13

> <ROCS_TanimotoCombo>
0.748 

> <ROCS_ShapeTanimoto>
0.651 

> <ROCS_ColorTanimoto>
0.097 

> <ROCS_RefTversky>
0.798 

> <ROCS_RefColorTversky>
0.220 

> <ROCS_RefTverskyCombo>
1.018 

> <ROCS_FitTversky>
0.780 

> <ROCS_FitColorTversky>
0.147 

> <ROCS_FitTverskyCombo>
0.927 

> <ROCS_ColorScore>
-2.034

> <ROCS_Overlap>
1327.732

> <ROCS_Rank>
221                 

$$$$
ligprep_h3d.sdf:4949_1793
  -OEChem-08212117123D

 68 72  0     1  0  0  0  0  0999 V2000
  -19.6339   -5.3746  -33.0968 C   0  0  0  0  0  0  0  0  0  0  0  0
  -21.8053   -6.0384  -33.9222 C   0  0  0  0  0  0  0  0  0  0  0  0
  -23.5643   -4.2483  -24.3055 C   0  0  0  0  0  0  0  0  0  0  0  0
  -25.9387   -4.5503  -24.6340 C   0  0  0  0  0  0  0  0  0  0  0  0
  -19.0248   -6.2544  -33.9915 C   0  0  0  0  0  0  0  0  0  0  0  0
  -21.1962   -6.9182  -34.8170 C   0  0  0  0  0  0  0  0  0  0  0  0
  -23.7028   -4.6149  -22.9669 C   0  0  0  0  0  0  0  0  0  0  0  0
  -26.0773   -4.9169  -23.2953 C   0  0  0  0  0  0  0  0  0  0  0  0
  -17.1832   -5.7247  -26.3408 C   0  0  0  0  0  0  0  0  0  0  0  0
  -17.2415   -3.3256  -26.0624 C   0  0  0  0  0  0  0  0  0  0  0  0
  -15.2599   -4.5648  -25.4506 C   0  0  0  0  0  0  0  0  0  0  0  0
  -21.0241   -5.2667  -33.0620 C   0  0  0  0  0  0  0  0  0  0  0  0
  -17.8632   -4.5119  -26.4519 C   0  0  0  0  0  0  0  0  0  0  0  0
  -24.6822   -4.2160  -25.1391 C   0  0  0  0  0  0  0  0  0  0  0  0
  -19.8059   -7.0262  -34.8516 C   0  0  0  0  0  0  0  0  0  0  0  0
  -24.9593   -4.9492  -22.4618 C   0  0  0  0  0  0  0  0  0  0  0  0
  -15.8815   -5.7512  -25.8401 C   0  0  0  0  0  0  0  0  0  0  0  0
  -15.9398   -3.3520  -25.5618 C   0  0  0  0  0  0  0  0  0  0  0  0
  -22.5803   -4.9888  -31.0844 C   0  0  0  0  0  0  0  0  0  0  0  0
  -22.6901   -2.0376  -32.1372 C   0  0  0  0  0  0  0  0  0  0  0  0
  -22.9952   -5.4259  -28.6784 C   0  0  0  0  0  0  0  0  0  0  0  0
  -20.0277   -5.5239  -27.4183 C   0  0  0  0  0  0  0  0  0  0  0  0
  -20.1999   -3.5047  -26.8623 C   0  0  0  0  0  0  0  0  0  0  0  0
  -21.0723   -4.0626  -29.2699 C   0  0  0  0  0  0  0  0  0  0  0  0
  -22.5020   -4.7499  -27.4032 C   0  0  1  0  0  0  0  0  0  0  0  0
  -21.0551   -4.4139  -27.7785 C   0  0  0  0  0  0  0  0  0  0  0  0
  -23.5333   -1.1206  -32.9597 C   0  0  0  0  0  0  0  0  0  0  0  0
  -23.3087   -3.4907  -27.0918 C   0  0  0  0  0  0  0  0  0  0  0  0
  -21.6853   -4.3115  -32.0915 C   0  0  2  0  0  0  0  0  0  0  0  0
  -19.1712   -4.4848  -26.9556 N   0  0  0  0  0  0  0  0  0  0  0  0
  -22.2225   -4.8210  -29.7562 N   0  0  0  0  0  0  0  0  0  0  0  0
  -24.5435   -3.8489  -26.4797 N   0  0  0  0  0  0  0  0  0  0  0  0
  -22.4768   -3.2706  -32.7177 N   0  0  0  0  0  0  0  0  0  0  0  0
  -23.5540   -5.6444  -31.4590 O   0  0  0  0  0  0  0  0  0  0  0  0
  -22.2615   -1.6560  -31.0545 O   0  0  0  0  0  0  0  0  0  0  0  0
  -19.2113   -7.8837  -35.7255 O   0  0  0  0  0  0  0  0  0  0  0  0
  -25.0924   -5.3012  -21.1762 F   0  0  0  0  0  0  0  0  0  0  0  0
  -15.2283   -6.9158  -25.7352 F   0  0  0  0  0  0  0  0  0  0  0  0
  -15.3422   -2.2125  -25.1897 F   0  0  0  0  0  0  0  0  0  0  0  0
  -19.0175   -4.7773  -32.4303 H   0  0  0  0  0  0  0  0  0  0  0  0
  -22.8893   -5.9609  -33.9020 H   0  0  0  0  0  0  0  0  0  0  0  0
  -22.5804   -3.9901  -24.6888 H   0  0  0  0  0  0  0  0  0  0  0  0
  -26.8166   -4.5282  -25.2746 H   0  0  0  0  0  0  0  0  0  0  0  0
  -17.9411   -6.3339  -34.0140 H   0  0  0  0  0  0  0  0  0  0  0  0
  -21.8101   -7.5163  -35.4845 H   0  0  0  0  0  0  0  0  0  0  0  0
  -22.8326   -4.6404  -22.3176 H   0  0  0  0  0  0  0  0  0  0  0  0
  -27.0553   -5.1769  -22.9014 H   0  0  0  0  0  0  0  0  0  0  0  0
  -17.6578   -6.6547  -26.6421 H   0  0  0  0  0  0  0  0  0  0  0  0
  -17.7619   -2.3749  -26.1457 H   0  0  0  0  0  0  0  0  0  0  0  0
  -14.2459   -4.5859  -25.0623 H   0  0  0  0  0  0  0  0  0  0  0  0
  -22.7499   -6.4945  -28.6746 H   0  0  0  0  0  0  0  0  0  0  0  0
  -24.0700   -5.3210  -28.8572 H   0  0  0  0  0  0  0  0  0  0  0  0
  -20.3252   -6.2047  -26.6131 H   0  0  0  0  0  0  0  0  0  0  0  0
  -19.6025   -6.0950  -28.2479 H   0  0  0  0  0  0  0  0  0  0  0  0
  -19.9088   -2.5350  -27.2740 H   0  0  0  0  0  0  0  0  0  0  0  0
  -20.5672   -3.3869  -25.8374 H   0  0  0  0  0  0  0  0  0  0  0  0
  -21.2768   -2.9996  -29.4359 H   0  0  0  0  0  0  0  0  0  0  0  0
  -20.1620   -4.3451  -29.8064 H   0  0  0  0  0  0  0  0  0  0  0  0
  -22.5641   -5.4311  -26.5474 H   0  0  0  0  0  0  0  0  0  0  0  0
  -24.6072   -1.2219  -32.7349 H   0  0  0  0  0  0  0  0  0  0  0  0
  -23.2974   -0.0592  -32.7812 H   0  0  0  0  0  0  0  0  0  0  0  0
  -23.4514   -1.2560  -34.0500 H   0  0  0  0  0  0  0  0  0  0  0  0
  -22.7084   -2.8819  -26.4180 H   0  0  0  0  0  0  0  0  0  0  0  0
  -23.4827   -2.9777  -28.0360 H   0  0  0  0  0  0  0  0  0  0  0  0
  -20.9076   -3.8034  -31.5109 H   0  0  0  0  0  0  0  0  0  0  0  0
  -25.3980   -3.8418  -27.0427 H   0  0  0  0  0  0  0  0  0  0  0  0
  -22.8922   -3.4573  -33.6231 H   0  0  0  0  0  0  0  0  0  0  0  0
  -19.8825   -8.3461  -36.2523 H   0  0  0  0  0  0  0  0  0  0  0  0
  1  5  1  0  0  0  0
  1 12  2  0  0  0  0
  2  6  2  0  0  0  0
  2 12  1  0  0  0  0
  3  7  1  0  0  0  0
  3 14  2  0  0  0  0
  4  8  2  0  0  0  0
  4 14  1  0  0  0  0
  5 15  2  0  0  0  0
  6 15  1  0  0  0  0
  7 16  2  0  0  0  0
  8 16  1  0  0  0  0
  9 13  2  0  0  0  0
  9 17  1  0  0  0  0
 10 13  1  0  0  0  0
 10 18  2  0  0  0  0
 11 17  2  0  0  0  0
 11 18  1  0  0  0  0
 12 29  1  0  0  0  0
 13 30  1  0  0  0  0
 14 32  1  0  0  0  0
 15 36  1  0  0  0  0
 16 37  1  0  0  0  0
 17 38  1  0  0  0  0
 18 39  1  0  0  0  0
 19 29  1  0  0  0  0
 19 31  1  0  0  0  0
 19 34  2  0  0  0  0
 20 27  1  0  0  0  0
 20 33  1  0  0  0  0
 20 35  2  0  0  0  0
 21 25  1  0  0  0  0
 21 31  1  0  0  0  0
 22 26  1  0  0  0  0
 22 30  1  0  0  0  0
 23 26  1  0  0  0  0
 23 30  1  0  0  0  0
 24 26  1  0  0  0  0
 24 31  1  0  0  0  0
 25 26  1  0  0  0  0
 25 28  1  0  0  0  0
 28 32  1  0  0  0  0
 29 33  1  0  0  0  0
  1 40  1  0  0  0  0
  2 41  1  0  0  0  0
  3 42  1  0  0  0  0
  4 43  1  0  0  0  0
  5 44  1  0  0  0  0
  6 45  1  0  0  0  0
  7 46  1  0  0  0  0
  8 47  1  0  0  0  0
  9 48  1  0  0  0  0
 10 49  1  0  0  0  0
 11 50  1  0  0  0  0
 21 51  1  0  0  0  0
 21 52  1  0  0  0  0
 22 53  1  0  0  0  0
 22 54  1  0  0  0  0
 23 55  1  0  0  0  0
 23 56  1  0  0  0  0
 24 57  1  0  0  0  0
 24 58  1  0  0  0  0
 25 59  1  0  0  0  0
 27 60  1  0  0  0  0
 27 61  1  0  0  0  0
 27 62  1  0  0  0  0
 28 63  1  0  0  0  0
 28 64  1  0  0  0  0
 29 65  1  0  0  0  0
 32 66  1  0  0  0  0
 33 67  1  0  0  0  0
 36 68  1  0  0  0  0
M  END
> <SMILES>
CC(=O)N[C@@H](C(=O)N1CC(CNc2ccc(cc2)F)C2(C1)CN(C2)c1cc(cc(c1)F)F)c1ccc(cc1)O

> <FORMATTED_ID>
H3D-008494

> <MOLFORMULA>
C29H29F3N4O3

> <Exact Mass>
538.22

> <XLogP>
3.69

> <TPSA_NOPS>
84.9

> <s_m_source_file>
ligprep_h3d.sdf

> <i_m_source_file_index>
4949

> <i_lp_mmshare_version>
55123

> <i_f3d_flags>
0

> <s_epik_input>
W2NIXTFbY0hdYyhbT0hdKVtjSF1bY0hdYzFbQ0BASF0oW05IXUMoPU8pW0NIM10pQyg9TylOKFtDSDJdMilbQ0gyXVtDQEhdKFtDSDJdW05IXWMzW2NIXVtjSF1jKEYpW2NIXVtjSF0zKUMyNFtDSDJdTihbQ0gyXTQpYzVbY0hdYyhGKVtjSF1jKEYpW2NIXTU=

> <s_epik_cmdline>
J2VwaWtfcHl0aG9uJywgJy1waHQnLCAnMC41JywgJy1waCcsICc3LjUnLCAnLXRuJywgJzgnLCAnLW1hJywgJzUwMCcsICctaW1hZScsICc8aW5maWxlLm1hZT4nLCAnLW9tYWUnLCAnPG91dGZpbGUubWFlPic=

> <r_lp_tautomer_probability>
1

> <r_epik_Ionization_Penalty>
0.00495365

> <r_epik_Ionization_Penalty_Charging>
0

> <r_epik_Ionization_Penalty_Neutral>
0.00495365

> <r_epik_State_Penalty>
-0

> <r_epik_Charging_Adjusted_Penalty>
0

> <i_epik_Tot_Q>
0

> <i_epik_Tot_abs_Q>
0

> <s_lp_Force_Field>
S-OPLS

> <r_lp_Energy>
34.9239

> <b_lp_Chiralities_Consistent>
1

> <s_lp_Variant>
ligprep_h3d.sdf:4949-1

> <ROCS_ShapeQuery>
_7L13

> <ROCS_TanimotoCombo>
0.690 

> <ROCS_ShapeTanimoto>
0.630 

> <ROCS_ColorTanimoto>
0.060 

> <ROCS_RefTversky>
0.798 

> <ROCS_RefColorTversky>
0.124 

> <ROCS_RefTverskyCombo>
0.922 

> <ROCS_FitTversky>
0.750 

> <ROCS_FitColorTversky>
0.103 

> <ROCS_FitTverskyCombo>
0.853 

> <ROCS_ColorScore>
-1.125

> <ROCS_Overlap>
1330.653

> <ROCS_Rank>
222                 

$$$$
ligprep_h3d.sdf:888_84
  -OEChem-08212117123D

 60 65  0     1  0  0  0  0  0999 V2000
  -19.5379   -7.4618  -35.7554 C   0  0  0  0  0  0  0  0  0  0  0  0
  -20.9806   -5.1382  -29.5051 C   0  0  0  0  0  0  0  0  0  0  0  0
  -21.7514   -4.3750  -30.3845 C   0  0  0  0  0  0  0  0  0  0  0  0
  -21.0943   -4.8962  -28.1150 C   0  0  0  0  0  0  0  0  0  0  0  0
  -21.9881   -3.9384  -27.5801 C   0  0  0  0  0  0  0  0  0  0  0  0
  -22.5949   -3.4208  -29.8593 C   0  0  0  0  0  0  0  0  0  0  0  0
  -22.7430   -3.1678  -28.4954 C   0  0  0  0  0  0  0  0  0  0  0  0
  -21.9460   -4.2662  -31.7741 C   0  0  0  0  0  0  0  0  0  0  0  0
  -18.9037   -3.7988  -26.2409 C   0  0  0  0  0  0  0  0  0  0  0  0
  -19.2224   -6.0110  -25.0136 C   0  0  0  0  0  0  0  0  0  0  0  0
  -17.0490   -5.1316  -25.8352 C   0  0  0  0  0  0  0  0  0  0  0  0
  -20.2384   -5.7216  -27.1919 C   0  0  0  0  0  0  0  0  0  0  0  0
  -21.1598   -7.2126  -33.9111 C   0  0  0  0  0  0  0  0  0  0  0  0
  -19.6702   -5.3095  -34.5536 C   0  0  0  0  0  0  0  0  0  0  0  0
  -21.4492   -6.5297  -32.5751 C   0  0  0  0  0  0  0  0  0  0  0  0
  -19.9673   -4.6283  -33.2176 C   0  0  0  0  0  0  0  0  0  0  0  0
  -23.0632   -2.8069  -25.6444 C   0  0  0  0  0  0  0  0  0  0  0  0
  -19.7762   -6.8329  -34.4458 C   0  0  0  0  0  0  0  0  0  0  0  0
  -21.1998   -4.4587  -25.2364 C   0  0  2  0  0  0  0  0  0  0  0  0
  -23.4293   -3.1279  -24.1924 C   0  0  1  0  0  0  0  0  0  0  0  0
  -21.0489   -3.5220  -24.0019 C   0  0  2  0  0  0  0  0  0  0  0  0
  -19.8718   -4.9550  -25.8971 C   0  0  2  0  0  0  0  0  0  0  0  0
  -24.4033   -4.2990  -24.0773 C   0  0  0  0  0  0  0  0  0  0  0  0
  -20.0840   -3.9835  -22.9171 C   0  0  0  0  0  0  0  0  0  0  0  0
  -19.3500   -7.9573  -36.7875 N   0  0  0  0  0  0  0  0  0  0  0  0
  -22.8359   -3.3201  -32.0888 N   0  0  0  0  0  0  0  0  0  0  0  0
  -17.6391   -4.1371  -26.4994 N   0  5  0  0  0  0  0  0  0  0  0  0
  -17.8431   -5.9857  -25.0721 N   0  0  0  0  0  0  0  0  0  0  0  0
  -22.0971   -3.7638  -26.1983 N   0  0  3  0  0  0  0  0  0  0  0  0
  -21.2585   -5.0769  -32.6857 N   0  0  0  0  0  0  0  0  0  0  0  0
  -19.3223   -2.6495  -26.3778 O   0  0  0  0  0  0  0  0  0  0  0  0
  -19.8497   -6.8523  -24.3740 O   0  0  0  0  0  0  0  0  0  0  0  0
  -15.8336   -5.3399  -25.8822 O   0  0  0  0  0  0  0  0  0  0  0  0
  -23.2439   -2.7846  -30.8727 O   0  0  0  0  0  0  0  0  0  0  0  0
  -22.3143   -3.3815  -23.3426 O   0  0  0  0  0  0  0  0  0  0  0  0
  -23.5167   -2.1394  -28.1278 F   0  0  0  0  0  0  0  0  0  0  0  0
  -20.2993   -5.8964  -29.8805 H   0  0  0  0  0  0  0  0  0  0  0  0
  -20.7931   -6.6403  -26.9567 H   0  0  0  0  0  0  0  0  0  0  0  0
  -19.3258   -6.0355  -27.7155 H   0  0  0  0  0  0  0  0  0  0  0  0
  -21.2034   -8.2947  -33.7703 H   0  0  0  0  0  0  0  0  0  0  0  0
  -21.9360   -6.9460  -34.6298 H   0  0  0  0  0  0  0  0  0  0  0  0
  -20.3547   -4.9294  -35.3135 H   0  0  0  0  0  0  0  0  0  0  0  0
  -18.6576   -5.0440  -34.8658 H   0  0  0  0  0  0  0  0  0  0  0  0
  -22.4759   -6.7385  -32.2489 H   0  0  0  0  0  0  0  0  0  0  0  0
  -20.7773   -6.9471  -31.8141 H   0  0  0  0  0  0  0  0  0  0  0  0
  -19.1587   -4.8667  -32.5145 H   0  0  0  0  0  0  0  0  0  0  0  0
  -19.9805   -3.5374  -33.3362 H   0  0  0  0  0  0  0  0  0  0  0  0
  -23.9745   -2.8566  -26.2754 H   0  0  0  0  0  0  0  0  0  0  0  0
  -22.7597   -1.7492  -25.6852 H   0  0  0  0  0  0  0  0  0  0  0  0
  -19.0202   -7.1918  -33.7563 H   0  0  0  0  0  0  0  0  0  0  0  0
  -21.7674   -5.3429  -24.9042 H   0  0  0  0  0  0  0  0  0  0  0  0
  -23.9841   -2.2272  -23.7542 H   0  0  0  0  0  0  0  0  0  0  0  0
  -20.7264   -2.5112  -24.3104 H   0  0  0  0  0  0  0  0  0  0  0  0
  -23.9467   -5.2046  -24.4769 H   0  0  0  0  0  0  0  0  0  0  0  0
  -25.3127   -4.0843  -24.6387 H   0  0  0  0  0  0  0  0  0  0  0  0
  -24.6640   -4.4661  -23.0320 H   0  0  0  0  0  0  0  0  0  0  0  0
  -20.3577   -4.9815  -22.5745 H   0  0  0  0  0  0  0  0  0  0  0  0
  -20.1186   -3.2974  -22.0708 H   0  0  0  0  0  0  0  0  0  0  0  0
  -19.0673   -4.0106  -23.3093 H   0  0  0  0  0  0  0  0  0  0  0  0
  -17.3536   -6.6638  -24.4959 H   0  0  0  0  0  0  0  0  0  0  0  0
  1 18  1  0  0  0  0
  1 25  3  0  0  0  0
  2  3  2  0  0  0  0
  2  4  1  0  0  0  0
  3  6  1  0  0  0  0
  3  8  1  0  0  0  0
  4  5  2  0  0  0  0
  4 12  1  0  0  0  0
  5  7  1  0  0  0  0
  5 29  1  0  0  0  0
  6  7  2  0  0  0  0
  6 34  1  0  0  0  0
  7 36  1  0  0  0  0
  8 26  2  0  0  0  0
  8 30  1  0  0  0  0
  9 22  1  0  0  0  0
  9 27  1  0  0  0  0
  9 31  2  0  0  0  0
 10 22  1  0  0  0  0
 10 28  1  0  0  0  0
 10 32  2  0  0  0  0
 11 27  1  0  0  0  0
 11 28  1  0  0  0  0
 11 33  2  0  0  0  0
 12 22  1  0  0  0  0
 13 15  1  0  0  0  0
 13 18  1  0  0  0  0
 14 16  1  0  0  0  0
 14 18  1  0  0  0  0
 15 30  1  0  0  0  0
 16 30  1  0  0  0  0
 17 20  1  0  0  0  0
 17 29  1  0  0  0  0
 19 21  1  0  0  0  0
 19 22  1  0  0  0  0
 19 29  1  0  0  0  0
 20 23  1  0  0  0  0
 20 35  1  0  0  0  0
 21 24  1  0  0  0  0
 21 35  1  0  0  0  0
 26 34  1  0  0  0  0
  2 37  1  0  0  0  0
 12 38  1  0  0  0  0
 12 39  1  0  0  0  0
 13 40  1  0  0  0  0
 13 41  1  0  0  0  0
 14 42  1  0  0  0  0
 14 43  1  0  0  0  0
 15 44  1  0  0  0  0
 15 45  1  0  0  0  0
 16 46  1  0  0  0  0
 16 47  1  0  0  0  0
 17 48  1  0  0  0  0
 17 49  1  0  0  0  0
 18 50  1  0  0  0  0
 19 51  1  0  0  0  0
 20 52  1  0  0  0  0
 21 53  1  0  0  0  0
 23 54  1  0  0  0  0
 23 55  1  0  0  0  0
 23 56  1  0  0  0  0
 24 57  1  0  0  0  0
 24 58  1  0  0  0  0
 24 59  1  0  0  0  0
 28 60  1  0  0  0  0
M  CHG  1  27  -1
M  END
> <SMILES>
C[C@@H]1CN2[C@H]([C@H](C)O1)C1(Cc3cc4c(noc4c(c32)F)N2CCC(CC2)C#N)C(=O)NC(=O)NC1=O

> <FORMATTED_ID>
H3D-005779

> <MOLFORMULA>
C24H25FN6O5

> <Exact Mass>
496.19

> <XLogP>
0.86

> <TPSA_NOPS>
141.1

> <s_m_source_file>
ligprep_h3d.sdf

> <i_m_source_file_index>
888

> <i_lp_mmshare_version>
55123

> <i_f3d_flags>
0

> <s_epik_input>
Tz1DMVtOSF1DKD1PKVtOSF1DKD1PKUMxMltDQEBIXTNOKFtDSDJdW0NAQEhdKFtDSDNdKU9bQ0BIXTNbQ0gzXSljNGMoW0NIMl0yKVtjSF1jNWMoYzRGKW9uYzVONltDSDJdW0NIMl1bQ0hdKEMjTilbQ0gyXVtDSDJdNg==

> <s_epik_cmdline>
J2VwaWtfcHl0aG9uJywgJy1waHQnLCAnMC41JywgJy1waCcsICc3LjUnLCAnLXRuJywgJzgnLCAnLW1hJywgJzUwMCcsICctaW1hZScsICc8aW5maWxlLm1hZT4nLCAnLW9tYWUnLCAnPG91dGZpbGUubWFlPic=

> <r_lp_tautomer_probability>
1

> <r_epik_Ionization_Penalty>
0.455388

> <r_epik_Ionization_Penalty_Charging>
0.455373

> <r_epik_Ionization_Penalty_Neutral>
1.47958e-05

> <r_epik_State_Penalty>
0.458483

> <r_epik_Charging_Adjusted_Penalty>
0.913857

> <i_epik_Tot_Q>
-1

> <i_epik_Tot_abs_Q>
1

> <s_lp_Force_Field>
S-OPLS

> <r_lp_Energy>
53.1335

> <b_lp_Chiralities_Consistent>
1

> <s_lp_Variant>
ligprep_h3d.sdf:888-2

> <ROCS_ShapeQuery>
_7L13

> <ROCS_TanimotoCombo>
0.784 

> <ROCS_ShapeTanimoto>
0.653 

> <ROCS_ColorTanimoto>
0.130 

> <ROCS_RefTversky>
0.798 

> <ROCS_RefColorTversky>
0.298 

> <ROCS_RefTverskyCombo>
1.096 

> <ROCS_FitTversky>
0.782 

> <ROCS_FitColorTversky>
0.188 

> <ROCS_FitTverskyCombo>
0.971 

> <ROCS_ColorScore>
-2.772

> <ROCS_Overlap>
1327.227

> <ROCS_Rank>
223                 

$$$$
ligprep_h3d.sdf:2489_1836
  -OEChem-08212117123D

 66 70  0     0  0  0  0  0  0999 V2000
  -19.1767   -3.2253  -23.7320 C   0  0  0  0  0  0  0  0  0  0  0  0
  -25.7313   -4.4642  -23.4299 C   0  0  0  0  0  0  0  0  0  0  0  0
  -25.8217   -4.9441  -24.7323 C   0  0  0  0  0  0  0  0  0  0  0  0
  -19.2485   -5.4241  -35.3997 C   0  0  0  0  0  0  0  0  0  0  0  0
  -20.6914   -6.9179  -34.1653 C   0  0  0  0  0  0  0  0  0  0  0  0
  -24.5157   -3.9915  -22.9328 C   0  0  0  0  0  0  0  0  0  0  0  0
  -18.6919   -6.5143  -36.0684 C   0  0  0  0  0  0  0  0  0  0  0  0
  -20.1348   -8.0081  -34.8340 C   0  0  0  0  0  0  0  0  0  0  0  0
  -24.7080   -4.9539  -25.5813 C   0  0  0  0  0  0  0  0  0  0  0  0
  -20.2483   -5.6259  -34.4481 C   0  0  0  0  0  0  0  0  0  0  0  0
  -23.3866   -3.9996  -23.7720 C   0  0  0  0  0  0  0  0  0  0  0  0
  -23.4915   -4.4562  -25.0871 C   0  0  0  0  0  0  0  0  0  0  0  0
  -19.1350   -7.8063  -35.7856 C   0  0  0  0  0  0  0  0  0  0  0  0
  -21.4086   -3.8371  -24.5743 C   0  0  0  0  0  0  0  0  0  0  0  0
  -20.3780   -4.3557  -27.1135 C   0  0  0  0  0  0  0  0  0  0  0  0
  -20.0060   -3.6627  -24.8065 C   0  0  0  0  0  0  0  0  0  0  0  0
  -19.4979   -3.9239  -26.0323 C   0  0  0  0  0  0  0  0  0  0  0  0
  -21.7024   -4.5297  -26.9229 C   0  0  0  0  0  0  0  0  0  0  0  0
  -24.9049   -5.6193  -26.8522 C   0  0  0  0  0  0  0  0  0  0  0  0
  -23.6800   -4.6269  -30.0962 C   0  0  0  0  0  0  0  0  0  0  0  0
  -21.3042   -3.8329  -29.7856 C   0  0  0  0  0  0  0  0  0  0  0  0
  -23.7847   -3.7928  -31.3651 C   0  0  0  0  0  0  0  0  0  0  0  0
  -21.4233   -3.0040  -31.0568 C   0  0  0  0  0  0  0  0  0  0  0  0
  -22.6629   -4.0424  -29.1138 C   0  0  0  0  0  0  0  0  0  0  0  0
  -24.7424   -7.7201  -27.9822 C   0  0  0  0  0  0  0  0  0  0  0  0
  -20.8479   -4.4525  -33.7287 C   0  0  0  0  0  0  0  0  0  0  0  0
  -21.9276   -4.8332  -32.7207 C   0  0  0  0  0  0  0  0  0  0  0  0
  -18.0493   -3.7966  -26.4230 C   0  0  0  0  0  0  0  0  0  0  0  0
  -18.5022   -2.8696  -22.8577 N   0  0  0  0  0  0  0  0  0  0  0  0
  -22.1074   -3.6213  -23.4802 N   0  0  0  0  0  0  0  0  0  0  0  0
  -22.2145   -4.2972  -25.6256 N   0  0  0  0  0  0  0  0  0  0  0  0
  -22.5333   -4.8855  -27.9493 N   0  0  0  0  0  0  0  0  0  0  0  0
  -22.4301   -3.6094  -32.0035 N   0  3  0  0  0  0  0  0  0  0  0  0
  -25.3087   -5.0626  -27.8861 O   0  0  0  0  0  0  0  0  0  0  0  0
  -18.5926   -8.8699  -36.4392 O   0  0  0  0  0  0  0  0  0  0  0  0
  -24.5896   -6.9514  -26.7841 O   0  0  0  0  0  0  0  0  0  0  0  0
  -17.8776   -4.1173  -27.7185 F   0  0  0  0  0  0  0  0  0  0  0  0
  -17.6164   -2.5354  -26.2415 F   0  0  0  0  0  0  0  0  0  0  0  0
  -17.2802   -4.6152  -25.6819 F   0  0  0  0  0  0  0  0  0  0  0  0
  -26.6082   -4.4715  -22.7884 H   0  0  0  0  0  0  0  0  0  0  0  0
  -26.7769   -5.3369  -25.0764 H   0  0  0  0  0  0  0  0  0  0  0  0
  -18.8972   -4.4211  -35.6263 H   0  0  0  0  0  0  0  0  0  0  0  0
  -21.4699   -7.0846  -33.4252 H   0  0  0  0  0  0  0  0  0  0  0  0
  -24.4443   -3.6348  -21.9098 H   0  0  0  0  0  0  0  0  0  0  0  0
  -17.9135   -6.3506  -36.8090 H   0  0  0  0  0  0  0  0  0  0  0  0
  -20.4845   -9.0119  -34.6095 H   0  0  0  0  0  0  0  0  0  0  0  0
  -19.9383   -4.4807  -28.0996 H   0  0  0  0  0  0  0  0  0  0  0  0
  -24.6596   -4.6606  -29.6112 H   0  0  0  0  0  0  0  0  0  0  0  0
  -23.4203   -5.6571  -30.3491 H   0  0  0  0  0  0  0  0  0  0  0  0
  -20.8368   -4.7948  -30.0121 H   0  0  0  0  0  0  0  0  0  0  0  0
  -20.6377   -3.3196  -29.0854 H   0  0  0  0  0  0  0  0  0  0  0  0
  -24.4449   -4.2596  -32.1140 H   0  0  0  0  0  0  0  0  0  0  0  0
  -24.1758   -2.7898  -31.1334 H   0  0  0  0  0  0  0  0  0  0  0  0
  -21.7702   -1.9860  -30.8180 H   0  0  0  0  0  0  0  0  0  0  0  0
  -20.4639   -2.9268  -31.5944 H   0  0  0  0  0  0  0  0  0  0  0  0
  -23.0364   -3.0613  -28.7633 H   0  0  0  0  0  0  0  0  0  0  0  0
  -24.4589   -8.7576  -27.7889 H   0  0  0  0  0  0  0  0  0  0  0  0
  -24.1114   -7.2993  -28.7691 H   0  0  0  0  0  0  0  0  0  0  0  0
  -25.7879   -7.6832  -28.2973 H   0  0  0  0  0  0  0  0  0  0  0  0
  -20.0471   -3.9241  -33.1944 H   0  0  0  0  0  0  0  0  0  0  0  0
  -21.2497   -3.7282  -34.4493 H   0  0  0  0  0  0  0  0  0  0  0  0
  -21.5229   -5.4964  -31.9505 H   0  0  0  0  0  0  0  0  0  0  0  0
  -22.7960   -5.3077  -33.1876 H   0  0  0  0  0  0  0  0  0  0  0  0
  -23.0279   -5.7374  -27.8461 H   0  0  0  0  0  0  0  0  0  0  0  0
  -22.5732   -2.8839  -32.7651 H   0  0  0  0  0  0  0  0  0  0  0  0
  -19.0019   -9.6958  -36.1353 H   0  0  0  0  0  0  0  0  0  0  0  0
  1 16  1  0  0  0  0
  1 29  3  0  0  0  0
  2  3  2  0  0  0  0
  2  6  1  0  0  0  0
  3  9  1  0  0  0  0
  4  7  1  0  0  0  0
  4 10  2  0  0  0  0
  5  8  2  0  0  0  0
  5 10  1  0  0  0  0
  6 11  2  0  0  0  0
  7 13  2  0  0  0  0
  8 13  1  0  0  0  0
  9 12  2  0  0  0  0
  9 19  1  0  0  0  0
 10 26  1  0  0  0  0
 11 12  1  0  0  0  0
 11 30  1  0  0  0  0
 12 31  1  0  0  0  0
 13 35  1  0  0  0  0
 14 16  1  0  0  0  0
 14 30  2  0  0  0  0
 14 31  1  0  0  0  0
 15 17  1  0  0  0  0
 15 18  2  0  0  0  0
 16 17  2  0  0  0  0
 17 28  1  0  0  0  0
 18 31  1  0  0  0  0
 18 32  1  0  0  0  0
 19 34  2  0  0  0  0
 19 36  1  0  0  0  0
 20 22  1  0  0  0  0
 20 24  1  0  0  0  0
 21 23  1  0  0  0  0
 21 24  1  0  0  0  0
 22 33  1  0  0  0  0
 23 33  1  0  0  0  0
 24 32  1  0  0  0  0
 25 36  1  0  0  0  0
 26 27  1  0  0  0  0
 27 33  1  0  0  0  0
 28 37  1  0  0  0  0
 28 38  1  0  0  0  0
 28 39  1  0  0  0  0
  2 40  1  0  0  0  0
  3 41  1  0  0  0  0
  4 42  1  0  0  0  0
  5 43  1  0  0  0  0
  6 44  1  0  0  0  0
  7 45  1  0  0  0  0
  8 46  1  0  0  0  0
 15 47  1  0  0  0  0
 20 48  1  0  0  0  0
 20 49  1  0  0  0  0
 21 50  1  0  0  0  0
 21 51  1  0  0  0  0
 22 52  1  0  0  0  0
 22 53  1  0  0  0  0
 23 54  1  0  0  0  0
 23 55  1  0  0  0  0
 24 56  1  0  0  0  0
 25 57  1  0  0  0  0
 25 58  1  0  0  0  0
 25 59  1  0  0  0  0
 26 60  1  0  0  0  0
 26 61  1  0  0  0  0
 27 62  1  0  0  0  0
 27 63  1  0  0  0  0
 32 64  1  0  0  0  0
 33 65  1  0  0  0  0
 35 66  1  0  0  0  0
M  CHG  1  33   1
M  END
> <SMILES>
COC(=O)c1cccc2nc3c(c(cc(n3c12)NC1CCN(CC1)CCc1ccc(cc1)O)C(F)(F)F)C#N

> <FORMATTED_ID>
H3D-005949

> <MOLFORMULA>
C28H26F3N5O3

> <Exact Mass>
537.2

> <XLogP>
5.99

> <TPSA_NOPS>
102.9

> <s_m_source_file>
ligprep_h3d.sdf

> <i_m_source_file_index>
2489

> <i_lp_mmshare_version>
55123

> <i_f3d_flags>
0

> <s_epik_input>
W0NIM11PQyg9TyljKFtjSF1bY0hdW2NIXTEpYyhjMTIpbjNjKG4yKWMoQyNOKWMoQyhGKShGKUYpW2NIXWMzW05IXVtDSF00W0NIMl1bQ0gyXU4oW0NIMl1bQ0gyXTQpW0NIMl1bQ0gyXWM1W2NIXVtjSF1jKFtPSF0pW2NIXVtjSF01

> <s_epik_cmdline>
J2VwaWtfcHl0aG9uJywgJy1waHQnLCAnMC41JywgJy1waCcsICc3LjUnLCAnLXRuJywgJzgnLCAnLW1hJywgJzUwMCcsICctaW1hZScsICc8aW5maWxlLm1hZT4nLCAnLW9tYWUnLCAnPG91dGZpbGUubWFlPic=

> <r_lp_tautomer_probability>
1

> <r_epik_Ionization_Penalty>
0.0104872

> <r_epik_Ionization_Penalty_Charging>
0.0050743

> <r_epik_Ionization_Penalty_Neutral>
0.00541292

> <r_epik_State_Penalty>
-0

> <r_epik_Charging_Adjusted_Penalty>
0.0050743

> <i_epik_Tot_Q>
1

> <i_epik_Tot_abs_Q>
1

> <s_epik_Chemistry_Notes>
This compound has an ester and may undergo hydrolysis at high or low pH.

> <s_lp_Force_Field>
S-OPLS

> <r_lp_Energy>
72.5525

> <b_lp_Chiralities_Consistent>
1

> <s_lp_Variant>
ligprep_h3d.sdf:2489-1

> <ROCS_ShapeQuery>
_7L13

> <ROCS_TanimotoCombo>
0.763 

> <ROCS_ShapeTanimoto>
0.622 

> <ROCS_ColorTanimoto>
0.140 

> <ROCS_RefTversky>
0.798 

> <ROCS_RefColorTversky>
0.295 

> <ROCS_RefTverskyCombo>
1.093 

> <ROCS_FitTversky>
0.739 

> <ROCS_FitColorTversky>
0.211 

> <ROCS_FitTverskyCombo>
0.950 

> <ROCS_ColorScore>
-2.711

> <ROCS_Overlap>
1331.572

> <ROCS_Rank>
224                 

$$$$
ligprep_h3d.sdf:1153_1862
  -OEChem-08212117123D

 75 80  0     0  0  0  0  0  0999 V2000
  -19.9527   -3.8308  -32.1762 C   0  0  0  0  0  0  0  0  0  0  0  0
  -20.4901   -6.1811  -32.0207 C   0  0  0  0  0  0  0  0  0  0  0  0
  -19.3950   -4.0417  -33.4372 C   0  0  0  0  0  0  0  0  0  0  0  0
  -19.9325   -6.3921  -33.2817 C   0  0  0  0  0  0  0  0  0  0  0  0
  -16.8553   -6.0331  -26.4368 C   0  0  0  0  0  0  0  0  0  0  0  0
  -22.9952   -4.1527  -28.7924 C   0  0  0  0  0  0  0  0  0  0  0  0
  -20.7081   -4.4465  -25.3351 C   0  0  0  0  0  0  0  0  0  0  0  0
  -16.6888   -4.6384  -26.5307 C   0  0  0  0  0  0  0  0  0  0  0  0
  -20.8730   -4.5685  -27.7440 C   0  0  0  0  0  0  0  0  0  0  0  0
  -20.5002   -4.9005  -31.4679 C   0  0  0  0  0  0  0  0  0  0  0  0
  -21.0784   -4.6817  -30.1599 C   0  0  0  0  0  0  0  0  0  0  0  0
  -19.3849   -5.3223  -33.9900 C   0  0  0  0  0  0  0  0  0  0  0  0
  -22.4270   -4.3661  -30.0508 C   0  0  0  0  0  0  0  0  0  0  0  0
  -20.3013   -4.7831  -29.0096 C   0  0  0  0  0  0  0  0  0  0  0  0
  -22.2417   -4.2478  -27.6257 C   0  0  0  0  0  0  0  0  0  0  0  0
  -20.1140   -4.6641  -26.5699 C   0  0  0  0  0  0  0  0  0  0  0  0
  -22.0532   -4.1380  -25.3197 C   0  0  0  0  0  0  0  0  0  0  0  0
  -18.2164   -6.2174  -26.4403 C   0  0  0  0  0  0  0  0  0  0  0  0
  -20.0014   -7.4332  -36.4515 C   0  0  0  0  0  0  0  0  0  0  0  0
  -22.7370   -3.8998  -24.0602 C   0  0  0  0  0  0  0  0  0  0  0  0
  -20.1002   -4.0391  -37.8290 C   0  0  0  0  0  0  0  0  0  0  0  0
  -21.1645   -3.9750  -36.7730 C   0  0  0  0  0  0  0  0  0  0  0  0
  -21.3790   -6.2952  -37.9136 C   0  0  0  0  0  0  0  0  0  0  0  0
  -20.5596   -5.3032  -37.1490 C   0  0  0  0  0  0  0  0  0  0  0  0
  -23.3070   -4.2433  -31.2542 C   0  0  0  0  0  0  0  0  0  0  0  0
  -18.8514   -5.1276  -29.2059 C   0  0  0  0  0  0  0  0  0  0  0  0
  -19.0176   -7.4548  -26.3650 C   0  0  0  0  0  0  0  0  0  0  0  0
  -28.7557   -4.5153  -24.3911 C   0  0  0  0  0  0  0  0  0  0  0  0
  -18.7845   -5.5495  -35.3472 C   0  0  0  0  0  0  0  0  0  0  0  0
  -24.9194   -4.0262  -22.8306 C   0  0  0  0  0  0  0  0  0  0  0  0
  -26.3683   -3.7544  -23.1871 C   0  0  0  0  0  0  0  0  0  0  0  0
  -17.8512   -3.9831  -26.5897 N   0  0  0  0  0  0  0  0  0  0  0  0
  -22.8209   -4.0360  -26.4288 N   0  0  0  0  0  0  0  0  0  0  0  0
  -18.7612   -4.9705  -26.5329 N   0  0  0  0  0  0  0  0  0  0  0  0
  -19.7464   -6.0891  -36.2807 N   0  0  0  0  0  0  0  0  0  0  0  0
  -24.0977   -4.2260  -24.0026 N   0  0  0  0  0  0  0  0  0  0  0  0
  -19.4823   -8.3756  -35.8690 O   0  0  0  0  0  0  0  0  0  0  0  0
  -22.1282   -3.4074  -23.0928 O   0  0  0  0  0  0  0  0  0  0  0  0
  -26.4283   -5.0987  -25.4281 O   0  0  0  0  0  0  0  0  0  0  0  0
  -27.1362   -6.2506  -23.2964 O   0  0  0  0  0  0  0  0  0  0  0  0
  -20.9711   -7.5884  -37.4175 O   0  0  0  0  0  0  0  0  0  0  0  0
  -27.0840   -5.0631  -24.1320 S   0  0  0  0  0  0  0  0  0  0  0  0
  -19.9524   -2.8268  -31.7585 H   0  0  0  0  0  0  0  0  0  0  0  0
  -20.9136   -7.0251  -31.4813 H   0  0  0  0  0  0  0  0  0  0  0  0
  -18.9697   -3.2027  -33.9814 H   0  0  0  0  0  0  0  0  0  0  0  0
  -19.9294   -7.3931  -33.7051 H   0  0  0  0  0  0  0  0  0  0  0  0
  -16.0934   -6.7964  -26.3756 H   0  0  0  0  0  0  0  0  0  0  0  0
  -24.0540   -3.9060  -28.7218 H   0  0  0  0  0  0  0  0  0  0  0  0
  -20.1426   -4.5144  -24.4098 H   0  0  0  0  0  0  0  0  0  0  0  0
  -15.7688   -4.0723  -26.5587 H   0  0  0  0  0  0  0  0  0  0  0  0
  -20.4017   -3.8640  -38.8550 H   0  0  0  0  0  0  0  0  0  0  0  0
  -19.1263   -3.6341  -37.5840 H   0  0  0  0  0  0  0  0  0  0  0  0
  -20.9015   -3.5274  -35.8228 H   0  0  0  0  0  0  0  0  0  0  0  0
  -22.1761   -3.7567  -37.0946 H   0  0  0  0  0  0  0  0  0  0  0  0
  -22.4525   -6.1840  -37.7328 H   0  0  0  0  0  0  0  0  0  0  0  0
  -21.1813   -6.2651  -38.9895 H   0  0  0  0  0  0  0  0  0  0  0  0
  -23.2994   -3.2123  -31.6238 H   0  0  0  0  0  0  0  0  0  0  0  0
  -22.9698   -4.9075  -32.0583 H   0  0  0  0  0  0  0  0  0  0  0  0
  -24.3398   -4.5244  -31.0173 H   0  0  0  0  0  0  0  0  0  0  0  0
  -18.7230   -6.2128  -29.1879 H   0  0  0  0  0  0  0  0  0  0  0  0
  -18.4879   -4.7405  -30.1618 H   0  0  0  0  0  0  0  0  0  0  0  0
  -18.2380   -4.6819  -28.4178 H   0  0  0  0  0  0  0  0  0  0  0  0
  -19.2454   -7.7175  -25.3190 H   0  0  0  0  0  0  0  0  0  0  0  0
  -19.9762   -7.3605  -26.9033 H   0  0  0  0  0  0  0  0  0  0  0  0
  -18.4958   -8.3139  -26.8203 H   0  0  0  0  0  0  0  0  0  0  0  0
  -29.2800   -5.2735  -24.9749 H   0  0  0  0  0  0  0  0  0  0  0  0
  -29.2306   -4.3864  -23.4173 H   0  0  0  0  0  0  0  0  0  0  0  0
  -28.7277   -3.5680  -24.9316 H   0  0  0  0  0  0  0  0  0  0  0  0
  -18.4019   -4.6106  -35.7622 H   0  0  0  0  0  0  0  0  0  0  0  0
  -17.9428   -6.2478  -35.2927 H   0  0  0  0  0  0  0  0  0  0  0  0
  -24.4845   -3.2003  -22.2592 H   0  0  0  0  0  0  0  0  0  0  0  0
  -24.8443   -4.9381  -22.2304 H   0  0  0  0  0  0  0  0  0  0  0  0
  -26.4463   -2.8540  -23.8037 H   0  0  0  0  0  0  0  0  0  0  0  0
  -26.9892   -3.6265  -22.2953 H   0  0  0  0  0  0  0  0  0  0  0  0
  -24.5613   -4.5658  -24.8389 H   0  0  0  0  0  0  0  0  0  0  0  0
  1  3  1  0  0  0  0
  1 10  2  0  0  0  0
  2  4  2  0  0  0  0
  2 10  1  0  0  0  0
  3 12  2  0  0  0  0
  4 12  1  0  0  0  0
  5  8  1  0  0  0  0
  5 18  2  0  0  0  0
  6 13  2  0  0  0  0
  6 15  1  0  0  0  0
  7 16  1  0  0  0  0
  7 17  2  0  0  0  0
  8 32  2  0  0  0  0
  9 14  1  0  0  0  0
  9 15  1  0  0  0  0
  9 16  2  0  0  0  0
 10 11  1  0  0  0  0
 11 13  1  0  0  0  0
 11 14  2  0  0  0  0
 12 29  1  0  0  0  0
 13 25  1  0  0  0  0
 14 26  1  0  0  0  0
 15 33  2  0  0  0  0
 16 34  1  0  0  0  0
 17 20  1  0  0  0  0
 17 33  1  0  0  0  0
 18 27  1  0  0  0  0
 18 34  1  0  0  0  0
 19 35  1  0  0  0  0
 19 37  2  0  0  0  0
 19 41  1  0  0  0  0
 20 36  1  0  0  0  0
 20 38  2  0  0  0  0
 21 22  1  0  0  0  0
 21 24  1  0  0  0  0
 22 24  1  0  0  0  0
 23 24  1  0  0  0  0
 23 41  1  0  0  0  0
 24 35  1  0  0  0  0
 28 42  1  0  0  0  0
 29 35  1  0  0  0  0
 30 31  1  0  0  0  0
 30 36  1  0  0  0  0
 31 42  1  0  0  0  0
 32 34  1  0  0  0  0
 39 42  2  0  0  0  0
 40 42  2  0  0  0  0
  1 43  1  0  0  0  0
  2 44  1  0  0  0  0
  3 45  1  0  0  0  0
  4 46  1  0  0  0  0
  5 47  1  0  0  0  0
  6 48  1  0  0  0  0
  7 49  1  0  0  0  0
  8 50  1  0  0  0  0
 21 51  1  0  0  0  0
 21 52  1  0  0  0  0
 22 53  1  0  0  0  0
 22 54  1  0  0  0  0
 23 55  1  0  0  0  0
 23 56  1  0  0  0  0
 25 57  1  0  0  0  0
 25 58  1  0  0  0  0
 25 59  1  0  0  0  0
 26 60  1  0  0  0  0
 26 61  1  0  0  0  0
 26 62  1  0  0  0  0
 27 63  1  0  0  0  0
 27 64  1  0  0  0  0
 27 65  1  0  0  0  0
 28 66  1  0  0  0  0
 28 67  1  0  0  0  0
 28 68  1  0  0  0  0
 29 69  1  0  0  0  0
 29 70  1  0  0  0  0
 30 71  1  0  0  0  0
 30 72  1  0  0  0  0
 31 73  1  0  0  0  0
 31 74  1  0  0  0  0
 36 75  1  0  0  0  0
M  END
> <SMILES>
Cc1cc2nc(cc(c2c(c1-c1ccc(cc1)CN1C(=O)OCC21CC2)C)-n1nccc1C)C(=O)NCCS(=O)(=O)C

> <FORMATTED_ID>
H3D-007575

> <MOLFORMULA>
C31H33N5O5S

> <Exact Mass>
587.22

> <XLogP>
3.77

> <TPSA_NOPS>
131.9

> <s_m_source_file>
ligprep_h3d.sdf

> <i_m_source_file_index>
1153

> <i_lp_mmshare_version>
55123

> <i_f3d_flags>
0

> <s_epik_input>
W0NIMl0xT0MoPU8pTihDMTJbQ0gyXVtDSDJdMilbQ0gyXWMoW2NIXVtjSF0zKVtjSF1bY0hdYzMtYyhjKFtDSDNdKVtjSF00KWMoW0NIM10pYyhjNDUpYygtbjZuW2NIXVtjSF1jNltDSDNdKVtjSF1jKG41KUMoPU8pW05IXVtDSDJdW0NIMl1TKD1PKSg9TylbQ0gzXQ==

> <s_epik_cmdline>
J2VwaWtfcHl0aG9uJywgJy1waHQnLCAnMC41JywgJy1waCcsICc3LjUnLCAnLXRuJywgJzgnLCAnLW1hJywgJzUwMCcsICctaW1hZScsICc8aW5maWxlLm1hZT4nLCAnLW9tYWUnLCAnPG91dGZpbGUubWFlPic=

> <r_lp_tautomer_probability>
1

> <r_epik_Ionization_Penalty>
2.25609e-05

> <r_epik_Ionization_Penalty_Charging>
0

> <r_epik_Ionization_Penalty_Neutral>
2.25609e-05

> <r_epik_State_Penalty>
-0

> <r_epik_Charging_Adjusted_Penalty>
0

> <i_epik_Tot_Q>
0

> <i_epik_Tot_abs_Q>
0

> <s_epik_Chemistry_Notes>
This compound has an ester and may undergo hydrolysis at high or low pH.

> <s_lp_Force_Field>
S-OPLS

> <r_lp_Energy>
31.6268

> <b_lp_Chiralities_Consistent>
1

> <s_lp_Variant>
ligprep_h3d.sdf:1153-1

> <ROCS_ShapeQuery>
_7L13

> <ROCS_TanimotoCombo>
0.698 

> <ROCS_ShapeTanimoto>
0.590 

> <ROCS_ColorTanimoto>
0.108 

> <ROCS_RefTversky>
0.798 

> <ROCS_RefColorTversky>
0.224 

> <ROCS_RefTverskyCombo>
1.022 

> <ROCS_FitTversky>
0.694 

> <ROCS_FitColorTversky>
0.173 

> <ROCS_FitTverskyCombo>
0.866 

> <ROCS_ColorScore>
-2.048

> <ROCS_Overlap>
1336.126

> <ROCS_Rank>
225                 

$$$$
ligprep_h3d.sdf:5883_395
  -OEChem-08212117123D

 57 61  0     0  0  0  0  0  0999 V2000
  -20.5417   -8.5013  -35.8041 C   0  0  0  0  0  0  0  0  0  0  0  0
  -19.3918   -8.1164  -36.4934 C   0  0  0  0  0  0  0  0  0  0  0  0
  -19.6993   -3.8630  -25.6257 C   0  0  0  0  0  0  0  0  0  0  0  0
  -21.0479   -7.6932  -34.7859 C   0  0  0  0  0  0  0  0  0  0  0  0
  -20.8775   -3.9781  -24.8881 C   0  0  0  0  0  0  0  0  0  0  0  0
  -19.7014   -4.1450  -26.9918 C   0  0  0  0  0  0  0  0  0  0  0  0
  -18.7479   -6.9236  -36.1646 C   0  0  0  0  0  0  0  0  0  0  0  0
  -23.0787   -3.0421  -32.1605 C   0  0  0  0  0  0  0  0  0  0  0  0
  -20.6654   -5.7070  -32.0519 C   0  0  0  0  0  0  0  0  0  0  0  0
  -22.0599   -4.6574  -26.8825 C   0  0  0  0  0  0  0  0  0  0  0  0
  -23.2788   -4.8286  -23.4119 C   0  0  0  0  0  0  0  0  0  0  0  0
  -24.5220   -4.2799  -25.3118 C   0  0  0  0  0  0  0  0  0  0  0  0
  -23.1634   -2.6708  -30.8324 C   0  0  0  0  0  0  0  0  0  0  0  0
  -21.4504   -4.7002  -31.4174 C   0  0  0  0  0  0  0  0  0  0  0  0
  -22.0578   -4.3753  -25.5164 C   0  0  0  0  0  0  0  0  0  0  0  0
  -20.4040   -6.5004  -34.4571 C   0  0  0  0  0  0  0  0  0  0  0  0
  -23.2796   -4.4944  -24.7508 C   0  0  0  0  0  0  0  0  0  0  0  0
  -22.1946   -4.0811  -32.4218 C   0  0  0  0  0  0  0  0  0  0  0  0
  -20.8816   -4.5422  -27.6202 C   0  0  0  0  0  0  0  0  0  0  0  0
  -19.2540   -6.1155  -35.1464 C   0  0  0  0  0  0  0  0  0  0  0  0
  -20.9447   -5.6770  -33.3984 C   0  0  0  0  0  0  0  0  0  0  0  0
  -21.5763   -4.2835  -30.0928 C   0  0  0  0  0  0  0  0  0  0  0  0
  -25.5475   -4.7128  -23.3299 C   0  0  0  0  0  0  0  0  0  0  0  0
  -22.4313   -4.3344  -34.8993 C   0  0  0  0  0  0  0  0  0  0  0  0
  -17.4380   -4.6508  -35.6074 C   0  0  0  0  0  0  0  0  0  0  0  0
  -27.9216   -4.5770  -23.3003 C   0  0  0  0  0  0  0  0  0  0  0  0
  -24.3983   -4.9470  -22.6682 N   0  0  0  0  0  0  0  0  0  0  0  0
  -25.6808   -4.3811  -24.6283 N   0  0  0  0  0  0  0  0  0  0  0  0
  -21.8695   -4.6915  -33.6117 N   0  0  0  0  0  0  0  0  0  0  0  0
  -22.4377   -3.2827  -29.8924 N   0  3  0  0  0  0  0  0  0  0  0  0
  -20.8830   -4.8289  -29.0071 N   0  0  0  0  0  0  0  0  0  0  0  0
  -18.6039   -4.9550  -34.8456 O   0  0  0  0  0  0  0  0  0  0  0  0
  -26.7096   -4.8240  -22.6024 O   0  0  0  0  0  0  0  0  0  0  0  0
  -21.0426   -9.4307  -36.0596 H   0  0  0  0  0  0  0  0  0  0  0  0
  -18.9981   -8.7454  -37.2865 H   0  0  0  0  0  0  0  0  0  0  0  0
  -18.7804   -3.5535  -25.1363 H   0  0  0  0  0  0  0  0  0  0  0  0
  -21.9454   -8.0080  -34.2593 H   0  0  0  0  0  0  0  0  0  0  0  0
  -20.8595   -3.7553  -23.8238 H   0  0  0  0  0  0  0  0  0  0  0  0
  -18.7775   -4.0517  -27.5572 H   0  0  0  0  0  0  0  0  0  0  0  0
  -17.8528   -6.6296  -36.7058 H   0  0  0  0  0  0  0  0  0  0  0  0
  -23.6607   -2.5552  -32.9324 H   0  0  0  0  0  0  0  0  0  0  0  0
  -19.9701   -6.3804  -31.5675 H   0  0  0  0  0  0  0  0  0  0  0  0
  -22.9784   -4.9679  -27.3769 H   0  0  0  0  0  0  0  0  0  0  0  0
  -22.3555   -5.0182  -22.8725 H   0  0  0  0  0  0  0  0  0  0  0  0
  -24.6359   -4.0111  -26.3577 H   0  0  0  0  0  0  0  0  0  0  0  0
  -23.8098   -1.8777  -30.4801 H   0  0  0  0  0  0  0  0  0  0  0  0
  -21.7958   -3.5633  -35.3425 H   0  0  0  0  0  0  0  0  0  0  0  0
  -22.4626   -5.2194  -35.5410 H   0  0  0  0  0  0  0  0  0  0  0  0
  -23.4485   -3.9585  -34.7580 H   0  0  0  0  0  0  0  0  0  0  0  0
  -17.0172   -3.7013  -35.2674 H   0  0  0  0  0  0  0  0  0  0  0  0
  -17.7001   -4.5871  -36.6665 H   0  0  0  0  0  0  0  0  0  0  0  0
  -16.7020   -5.4453  -35.4633 H   0  0  0  0  0  0  0  0  0  0  0  0
  -28.7667   -4.6960  -22.6178 H   0  0  0  0  0  0  0  0  0  0  0  0
  -28.0119   -5.2772  -24.1346 H   0  0  0  0  0  0  0  0  0  0  0  0
  -27.9082   -3.5545  -23.6851 H   0  0  0  0  0  0  0  0  0  0  0  0
  -22.5496   -2.9577  -28.9317 H   0  0  0  0  0  0  0  0  0  0  0  0
  -20.2478   -5.5880  -29.2550 H   0  0  0  0  0  0  0  0  0  0  0  0
  1  2  2  0  0  0  0
  1  4  1  0  0  0  0
  2  7  1  0  0  0  0
  3  5  1  0  0  0  0
  3  6  2  0  0  0  0
  4 16  2  0  0  0  0
  5 15  2  0  0  0  0
  6 19  1  0  0  0  0
  7 20  2  0  0  0  0
  8 13  1  0  0  0  0
  8 18  2  0  0  0  0
  9 14  1  0  0  0  0
  9 21  2  0  0  0  0
 10 15  1  0  0  0  0
 10 19  2  0  0  0  0
 11 17  2  0  0  0  0
 11 27  1  0  0  0  0
 12 17  1  0  0  0  0
 12 28  2  0  0  0  0
 13 30  2  0  0  0  0
 14 18  1  0  0  0  0
 14 22  2  0  0  0  0
 15 17  1  0  0  0  0
 16 20  1  0  0  0  0
 16 21  1  0  0  0  0
 18 29  1  0  0  0  0
 19 31  1  0  0  0  0
 20 32  1  0  0  0  0
 21 29  1  0  0  0  0
 22 30  1  0  0  0  0
 22 31  1  0  0  0  0
 23 27  2  0  0  0  0
 23 28  1  0  0  0  0
 23 33  1  0  0  0  0
 24 29  1  0  0  0  0
 25 32  1  0  0  0  0
 26 33  1  0  0  0  0
  1 34  1  0  0  0  0
  2 35  1  0  0  0  0
  3 36  1  0  0  0  0
  4 37  1  0  0  0  0
  5 38  1  0  0  0  0
  6 39  1  0  0  0  0
  7 40  1  0  0  0  0
  8 41  1  0  0  0  0
  9 42  1  0  0  0  0
 10 43  1  0  0  0  0
 11 44  1  0  0  0  0
 12 45  1  0  0  0  0
 13 46  1  0  0  0  0
 24 47  1  0  0  0  0
 24 48  1  0  0  0  0
 24 49  1  0  0  0  0
 25 50  1  0  0  0  0
 25 51  1  0  0  0  0
 25 52  1  0  0  0  0
 26 53  1  0  0  0  0
 26 54  1  0  0  0  0
 26 55  1  0  0  0  0
 30 56  1  0  0  0  0
 31 57  1  0  0  0  0
M  CHG  1  30   1
M  END
> <SMILES>
COc1ncc(cn1)-c1cccc(c1)Nc1nccc2n(c(cc12)-c1ccccc1OC)C

> <FORMATTED_ID>
H3D-000189

> <MOLFORMULA>
C26H23N5O2

> <Exact Mass>
437.19

> <XLogP>
5.78

> <TPSA_NOPS>
74.1

> <s_m_source_file>
ligprep_h3d.sdf

> <i_m_source_file_index>
5883

> <i_lp_mmshare_version>
55123

> <i_f3d_flags>
0

> <s_epik_input>
W0NIM11PYzFuW2NIXWMoW2NIXW4xKS1jMltjSF1bY0hdW2NIXWMoW2NIXTIpW05IXWMobltjSF1bY0hdMyljKGMzNClbY0hdYyhuNFtDSDNdKS1jNVtjSF1bY0hdW2NIXVtjSF1jNU9bQ0gzXQ==

> <s_epik_cmdline>
J2VwaWtfcHl0aG9uJywgJy1waHQnLCAnMC41JywgJy1waCcsICc3LjUnLCAnLXRuJywgJzgnLCAnLW1hJywgJzUwMCcsICctaW1hZScsICc8aW5maWxlLm1hZT4nLCAnLW9tYWUnLCAnPG91dGZpbGUubWFlPic=

> <r_lp_tautomer_probability>
1

> <r_epik_Ionization_Penalty>
0.064515

> <r_epik_Ionization_Penalty_Charging>
0.0614281

> <r_epik_Ionization_Penalty_Neutral>
0.00308682

> <r_epik_State_Penalty>
0.0533202

> <r_epik_Charging_Adjusted_Penalty>
0.114748

> <i_epik_Tot_Q>
1

> <i_epik_Tot_abs_Q>
1

> <s_lp_Force_Field>
S-OPLS

> <r_lp_Energy>
63.8253

> <b_lp_Chiralities_Consistent>
1

> <s_lp_Variant>
ligprep_h3d.sdf:5883-1

> <ROCS_ShapeQuery>
_7L13

> <ROCS_TanimotoCombo>
0.890 

> <ROCS_ShapeTanimoto>
0.697 

> <ROCS_ColorTanimoto>
0.193 

> <ROCS_RefTversky>
0.798 

> <ROCS_RefColorTversky>
0.373 

> <ROCS_RefTverskyCombo>
1.170 

> <ROCS_FitTversky>
0.847 

> <ROCS_FitColorTversky>
0.286 

> <ROCS_FitTverskyCombo>
1.133 

> <ROCS_ColorScore>
-3.409

> <ROCS_Overlap>
1320.714

> <ROCS_Rank>
226                 

$$$$
ligprep_h3d.sdf:1090_1327
  -OEChem-08212117123D

 71 76  0     1  0  0  0  0  0999 V2000
  -20.7946   -3.6497  -31.3038 C   0  0  0  0  0  0  0  0  0  0  0  0
  -21.5960   -5.9289  -31.2890 C   0  0  0  0  0  0  0  0  0  0  0  0
  -20.3566   -3.8123  -32.6181 C   0  0  0  0  0  0  0  0  0  0  0  0
  -21.1581   -6.0914  -32.6033 C   0  0  0  0  0  0  0  0  0  0  0  0
  -17.1752   -5.5128  -26.0289 C   0  0  0  0  0  0  0  0  0  0  0  0
  -23.6069   -3.9177  -27.7219 C   0  0  0  0  0  0  0  0  0  0  0  0
  -21.1323   -4.7664  -24.4929 C   0  0  0  0  0  0  0  0  0  0  0  0
  -17.7784   -6.7846  -26.0103 C   0  0  0  0  0  0  0  0  0  0  0  0
  -21.4806   -4.6598  -26.8829 C   0  0  0  0  0  0  0  0  0  0  0  0
  -21.4142   -4.7081  -30.6392 C   0  0  0  0  0  0  0  0  0  0  0  0
  -21.8683   -4.5395  -29.2759 C   0  0  0  0  0  0  0  0  0  0  0  0
  -20.5384   -5.0331  -33.2679 C   0  0  0  0  0  0  0  0  0  0  0  0
  -23.1586   -4.0842  -29.0346 C   0  0  0  0  0  0  0  0  0  0  0  0
  -21.0294   -4.8273  -28.2032 C   0  0  0  0  0  0  0  0  0  0  0  0
  -22.7894   -4.1981  -26.6304 C   0  0  0  0  0  0  0  0  0  0  0  0
  -20.6572   -4.9420  -25.7845 C   0  0  0  0  0  0  0  0  0  0  0  0
  -22.4266   -4.3105  -24.3455 C   0  0  0  0  0  0  0  0  0  0  0  0
  -18.2263   -4.6329  -25.9430 C   0  0  0  0  0  0  0  0  0  0  0  0
  -22.9864   -4.1065  -23.0204 C   0  0  0  0  0  0  0  0  0  0  0  0
  -18.1807   -6.5027  -36.7923 C   0  0  0  0  0  0  0  0  0  0  0  0
  -18.3103   -6.8890  -34.4553 C   0  0  0  0  0  0  0  0  0  0  0  0
  -19.5110   -8.4000  -36.5194 C   0  0  0  0  0  0  0  0  0  0  0  0
  -19.5993   -6.8745  -36.4121 C   0  0  1  0  0  0  0  0  0  0  0  0
  -17.6106   -7.4006  -35.7168 C   0  0  1  0  0  0  0  0  0  0  0  0
  -24.1005   -3.7590  -30.1503 C   0  0  0  0  0  0  0  0  0  0  0  0
  -19.6485   -5.3150  -28.5415 C   0  0  0  0  0  0  0  0  0  0  0  0
  -18.2429   -3.1571  -25.9161 C   0  0  0  0  0  0  0  0  0  0  0  0
  -20.0667   -5.2082  -34.6825 C   0  0  0  0  0  0  0  0  0  0  0  0
  -24.9935   -3.3691  -21.7095 C   0  0  0  0  0  0  0  0  0  0  0  0
  -26.4814   -3.6099  -21.8881 C   0  0  0  0  0  0  0  0  0  0  0  0
  -19.1096   -6.7226  -25.9195 N   0  0  0  0  0  0  0  0  0  0  0  0
  -23.2532   -4.0267  -25.3781 N   0  0  0  0  0  0  0  0  0  0  0  0
  -19.3514   -5.4012  -25.8802 N   0  0  0  0  0  0  0  0  0  0  0  0
  -19.6726   -6.5846  -34.9599 N   0  0  2  0  0  0  0  0  0  0  0  0
  -24.3058   -3.6422  -22.9509 N   0  0  0  0  0  0  0  0  0  0  0  0
  -22.3008   -4.3207  -22.0040 O   0  0  0  0  0  0  0  0  0  0  0  0
  -18.1809   -8.6956  -36.0242 O   0  0  0  0  0  0  0  0  0  0  0  0
  -26.6964   -4.9548  -22.2963 O   0  0  0  0  0  0  0  0  0  0  0  0
  -20.6451   -2.6921  -30.8107 H   0  0  0  0  0  0  0  0  0  0  0  0
  -22.0779   -6.7631  -30.7846 H   0  0  0  0  0  0  0  0  0  0  0  0
  -19.8738   -2.9827  -33.1278 H   0  0  0  0  0  0  0  0  0  0  0  0
  -21.3043   -7.0459  -33.1021 H   0  0  0  0  0  0  0  0  0  0  0  0
  -16.1246   -5.2702  -26.0951 H   0  0  0  0  0  0  0  0  0  0  0  0
  -24.6210   -3.5600  -27.5476 H   0  0  0  0  0  0  0  0  0  0  0  0
  -20.5150   -4.9776  -23.6240 H   0  0  0  0  0  0  0  0  0  0  0  0
  -17.3034   -7.7539  -26.0590 H   0  0  0  0  0  0  0  0  0  0  0  0
  -17.9208   -6.8298  -37.8048 H   0  0  0  0  0  0  0  0  0  0  0  0
  -17.9314   -5.4453  -36.6657 H   0  0  0  0  0  0  0  0  0  0  0  0
  -18.3660   -7.6553  -33.6758 H   0  0  0  0  0  0  0  0  0  0  0  0
  -17.7997   -6.0017  -34.0637 H   0  0  0  0  0  0  0  0  0  0  0  0
  -20.2559   -8.9348  -35.9215 H   0  0  0  0  0  0  0  0  0  0  0  0
  -19.5679   -8.7425  -37.5579 H   0  0  0  0  0  0  0  0  0  0  0  0
  -20.4078   -6.4418  -37.0059 H   0  0  0  0  0  0  0  0  0  0  0  0
  -16.5223   -7.4544  -35.6523 H   0  0  0  0  0  0  0  0  0  0  0  0
  -23.9962   -2.7073  -30.4379 H   0  0  0  0  0  0  0  0  0  0  0  0
  -23.9026   -4.3849  -31.0281 H   0  0  0  0  0  0  0  0  0  0  0  0
  -25.1401   -3.9411  -29.8538 H   0  0  0  0  0  0  0  0  0  0  0  0
  -19.6494   -6.4052  -28.6183 H   0  0  0  0  0  0  0  0  0  0  0  0
  -19.3099   -4.8901  -29.4904 H   0  0  0  0  0  0  0  0  0  0  0  0
  -18.9321   -5.0114  -27.7729 H   0  0  0  0  0  0  0  0  0  0  0  0
  -18.3163   -2.7421  -26.9347 H   0  0  0  0  0  0  0  0  0  0  0  0
  -19.0920   -2.7634  -25.3318 H   0  0  0  0  0  0  0  0  0  0  0  0
  -17.3333   -2.7416  -25.4496 H   0  0  0  0  0  0  0  0  0  0  0  0
  -20.8573   -4.9346  -35.3897 H   0  0  0  0  0  0  0  0  0  0  0  0
  -19.2059   -4.5647  -34.8922 H   0  0  0  0  0  0  0  0  0  0  0  0
  -24.7906   -2.3314  -21.4261 H   0  0  0  0  0  0  0  0  0  0  0  0
  -24.5892   -4.0357  -20.9417 H   0  0  0  0  0  0  0  0  0  0  0  0
  -26.8763   -2.9526  -22.6690 H   0  0  0  0  0  0  0  0  0  0  0  0
  -27.0324   -3.4315  -20.9589 H   0  0  0  0  0  0  0  0  0  0  0  0
  -24.7996   -3.4231  -23.8100 H   0  0  0  0  0  0  0  0  0  0  0  0
  -27.6553   -5.0660  -22.3985 H   0  0  0  0  0  0  0  0  0  0  0  0
  1  3  1  0  0  0  0
  1 10  2  0  0  0  0
  2  4  2  0  0  0  0
  2 10  1  0  0  0  0
  3 12  2  0  0  0  0
  4 12  1  0  0  0  0
  5  8  1  0  0  0  0
  5 18  2  0  0  0  0
  6 13  2  0  0  0  0
  6 15  1  0  0  0  0
  7 16  1  0  0  0  0
  7 17  2  0  0  0  0
  8 31  2  0  0  0  0
  9 14  1  0  0  0  0
  9 15  1  0  0  0  0
  9 16  2  0  0  0  0
 10 11  1  0  0  0  0
 11 13  1  0  0  0  0
 11 14  2  0  0  0  0
 12 28  1  0  0  0  0
 13 25  1  0  0  0  0
 14 26  1  0  0  0  0
 15 32  2  0  0  0  0
 16 33  1  0  0  0  0
 17 19  1  0  0  0  0
 17 32  1  0  0  0  0
 18 27  1  0  0  0  0
 18 33  1  0  0  0  0
 19 35  1  0  0  0  0
 19 36  2  0  0  0  0
 20 23  1  0  0  0  0
 20 24  1  0  0  0  0
 21 24  1  0  0  0  0
 21 34  1  0  0  0  0
 22 23  1  0  0  0  0
 22 37  1  0  0  0  0
 23 34  1  0  0  0  0
 24 37  1  0  0  0  0
 28 34  1  0  0  0  0
 29 30  1  0  0  0  0
 29 35  1  0  0  0  0
 30 38  1  0  0  0  0
 31 33  1  0  0  0  0
  1 39  1  0  0  0  0
  2 40  1  0  0  0  0
  3 41  1  0  0  0  0
  4 42  1  0  0  0  0
  5 43  1  0  0  0  0
  6 44  1  0  0  0  0
  7 45  1  0  0  0  0
  8 46  1  0  0  0  0
 20 47  1  0  0  0  0
 20 48  1  0  0  0  0
 21 49  1  0  0  0  0
 21 50  1  0  0  0  0
 22 51  1  0  0  0  0
 22 52  1  0  0  0  0
 23 53  1  0  0  0  0
 24 54  1  0  0  0  0
 25 55  1  0  0  0  0
 25 56  1  0  0  0  0
 25 57  1  0  0  0  0
 26 58  1  0  0  0  0
 26 59  1  0  0  0  0
 26 60  1  0  0  0  0
 27 61  1  0  0  0  0
 27 62  1  0  0  0  0
 27 63  1  0  0  0  0
 28 64  1  0  0  0  0
 28 65  1  0  0  0  0
 29 66  1  0  0  0  0
 29 67  1  0  0  0  0
 30 68  1  0  0  0  0
 30 69  1  0  0  0  0
 35 70  1  0  0  0  0
 38 71  1  0  0  0  0
M  END
> <SMILES>
Cc1cc2nc(cc(c2c(c1-c1ccc(cc1)CN1C[C@@H]2C[C@H]1CO2)C)-n1nccc1C)C(=O)NCCO

> <FORMATTED_ID>
H3D-006715

> <MOLFORMULA>
C30H33N5O3

> <Exact Mass>
511.26

> <XLogP>
3.24

> <TPSA_NOPS>
92.5

> <s_m_source_file>
ligprep_h3d.sdf

> <i_m_source_file_index>
1090

> <i_lp_mmshare_version>
55123

> <i_f3d_flags>
0

> <s_epik_input>
TzFbQ0gyXVtDSF0oW0NIMl0yKU4oW0NIMl1bQ0hdMTIpW0NIMl1jKFtjSF1bY0hdMylbY0hdW2NIXWMzLWMoYyhbQ0gzXSlbY0hdNCljKFtDSDNdKWMoYzQ1KWMoLW42bltjSF1bY0hdYzZbQ0gzXSlbY0hdYyhuNSlDKD1PKVtOSF1bQ0gyXVtDSDJdW09IXQ==

> <s_epik_cmdline>
J2VwaWtfcHl0aG9uJywgJy1waHQnLCAnMC41JywgJy1waCcsICc3LjUnLCAnLXRuJywgJzgnLCAnLW1hJywgJzUwMCcsICctaW1hZScsICc8aW5maWxlLm1hZT4nLCAnLW9tYWUnLCAnPG91dGZpbGUubWFlPic=

> <r_lp_tautomer_probability>
1

> <r_epik_Ionization_Penalty>
0.10556

> <r_epik_Ionization_Penalty_Charging>
0

> <r_epik_Ionization_Penalty_Neutral>
0.10556

> <r_epik_State_Penalty>
0.095414

> <r_epik_Charging_Adjusted_Penalty>
0.095414

> <i_epik_Tot_Q>
0

> <i_epik_Tot_abs_Q>
0

> <s_lp_Force_Field>
S-OPLS

> <r_lp_Energy>
76.768

> <b_lp_Chiralities_Consistent>
1

> <s_lp_Variant>
ligprep_h3d.sdf:1090-1

> <ROCS_ShapeQuery>
_7L13

> <ROCS_TanimotoCombo>
0.712 

> <ROCS_ShapeTanimoto>
0.628 

> <ROCS_ColorTanimoto>
0.084 

> <ROCS_RefTversky>
0.798 

> <ROCS_RefColorTversky>
0.224 

> <ROCS_RefTverskyCombo>
1.022 

> <ROCS_FitTversky>
0.747 

> <ROCS_FitColorTversky>
0.118 

> <ROCS_FitTverskyCombo>
0.865 

> <ROCS_ColorScore>
-2.124

> <ROCS_Overlap>
1329.898

> <ROCS_Rank>
227                 

$$$$
ligprep_h3d.sdf:5133_1191
  -OEChem-08212117123D

 65 70  0     0  0  0  0  0  0999 V2000
  -21.3301   -6.6968  -33.3373 C   0  0  0  0  0  0  0  0  0  0  0  0
  -20.2447   -4.5462  -33.1526 C   0  0  0  0  0  0  0  0  0  0  0  0
  -20.4469   -7.0551  -34.3556 C   0  0  0  0  0  0  0  0  0  0  0  0
  -19.3614   -4.9046  -34.1709 C   0  0  0  0  0  0  0  0  0  0  0  0
  -23.6149   -3.9687  -27.7394 C   0  0  0  0  0  0  0  0  0  0  0  0
  -20.9398   -4.4935  -28.4708 C   0  0  0  0  0  0  0  0  0  0  0  0
  -14.7784   -4.7023  -25.8022 C   0  0  0  0  0  0  0  0  0  0  0  0
  -15.2447   -5.9896  -25.9283 C   0  0  0  0  0  0  0  0  0  0  0  0
  -22.6626   -4.2691  -26.7732 C   0  0  0  0  0  0  0  0  0  0  0  0
  -21.2291   -5.4423  -32.7358 C   0  0  0  0  0  0  0  0  0  0  0  0
  -21.3414   -4.5275  -27.1433 C   0  0  0  0  0  0  0  0  0  0  0  0
  -23.2249   -3.9310  -29.0796 C   0  0  0  0  0  0  0  0  0  0  0  0
  -21.8962   -4.1917  -29.4423 C   0  0  0  0  0  0  0  0  0  0  0  0
  -19.4625   -6.1591  -34.7724 C   0  0  0  0  0  0  0  0  0  0  0  0
  -16.9074   -4.5231  -25.8600 C   0  0  0  0  0  0  0  0  0  0  0  0
  -18.2853   -4.1570  -25.8765 C   0  0  0  0  0  0  0  0  0  0  0  0
  -18.8738   -6.5117  -26.0967 C   0  0  0  0  0  0  0  0  0  0  0  0
  -17.5786   -6.8648  -26.0826 C   0  0  0  0  0  0  0  0  0  0  0  0
  -19.2521   -5.0982  -25.9899 C   0  0  0  0  0  0  0  0  0  0  0  0
  -23.8534   -5.4797  -24.9078 C   0  0  0  0  0  0  0  0  0  0  0  0
  -23.3141   -3.0220  -24.6792 C   0  0  0  0  0  0  0  0  0  0  0  0
  -21.4086   -4.7267  -24.8106 C   0  0  0  0  0  0  0  0  0  0  0  0
  -24.1376   -5.5473  -23.4116 C   0  0  0  0  0  0  0  0  0  0  0  0
  -23.6019   -3.1072  -23.1846 C   0  0  0  0  0  0  0  0  0  0  0  0
  -22.8525   -4.3668  -25.2726 C   0  0  0  0  0  0  0  0  0  0  0  0
  -25.0266   -4.2421  -21.4836 C   0  0  0  0  0  0  0  0  0  0  0  0
  -24.3186   -2.2608  -30.3719 C   0  0  0  0  0  0  0  0  0  0  0  0
  -22.1784   -5.0564  -31.6397 C   0  0  0  0  0  0  0  0  0  0  0  0
  -15.8106   -3.7998  -25.7606 N   0  0  0  0  0  0  0  0  0  0  0  0
  -16.6106   -5.8760  -25.9653 N   0  0  0  0  0  0  0  0  0  0  0  0
  -20.5686   -4.8039  -26.0107 N   0  0  0  0  0  0  0  0  0  0  0  0
  -24.6119   -4.1987  -22.9288 N   0  3  0  0  0  0  0  0  0  0  0  0
  -24.1524   -3.6360  -30.0343 O   0  0  0  0  0  0  0  0  0  0  0  0
  -21.5232   -4.1523  -30.7535 O   0  0  0  0  0  0  0  0  0  0  0  0
  -18.6126   -6.5041  -35.7485 F   0  0  0  0  0  0  0  0  0  0  0  0
  -22.0943   -7.4014  -33.0198 H   0  0  0  0  0  0  0  0  0  0  0  0
  -20.1582   -3.5667  -32.6895 H   0  0  0  0  0  0  0  0  0  0  0  0
  -20.5250   -8.0319  -34.8235 H   0  0  0  0  0  0  0  0  0  0  0  0
  -18.5952   -4.2071  -34.4960 H   0  0  0  0  0  0  0  0  0  0  0  0
  -24.6445   -3.7663  -27.4608 H   0  0  0  0  0  0  0  0  0  0  0  0
  -19.9150   -4.6925  -28.7650 H   0  0  0  0  0  0  0  0  0  0  0  0
  -13.7493   -4.3800  -25.7393 H   0  0  0  0  0  0  0  0  0  0  0  0
  -14.7408   -6.9441  -25.9934 H   0  0  0  0  0  0  0  0  0  0  0  0
  -18.5385   -3.1044  -25.7953 H   0  0  0  0  0  0  0  0  0  0  0  0
  -19.6505   -7.2635  -26.1875 H   0  0  0  0  0  0  0  0  0  0  0  0
  -17.2495   -7.8940  -26.1590 H   0  0  0  0  0  0  0  0  0  0  0  0
  -23.4851   -6.4559  -25.2495 H   0  0  0  0  0  0  0  0  0  0  0  0
  -24.8040   -5.3188  -25.4341 H   0  0  0  0  0  0  0  0  0  0  0  0
  -24.2246   -2.6781  -25.1884 H   0  0  0  0  0  0  0  0  0  0  0  0
  -22.5608   -2.2436  -24.8577 H   0  0  0  0  0  0  0  0  0  0  0  0
  -20.9988   -3.9705  -24.1300 H   0  0  0  0  0  0  0  0  0  0  0  0
  -21.3776   -5.6884  -24.2843 H   0  0  0  0  0  0  0  0  0  0  0  0
  -24.9370   -6.2674  -23.2078 H   0  0  0  0  0  0  0  0  0  0  0  0
  -23.2511   -5.8174  -22.8286 H   0  0  0  0  0  0  0  0  0  0  0  0
  -22.7064   -3.3374  -22.5980 H   0  0  0  0  0  0  0  0  0  0  0  0
  -24.0370   -2.1684  -22.8262 H   0  0  0  0  0  0  0  0  0  0  0  0
  -24.1447   -4.4910  -20.8905 H   0  0  0  0  0  0  0  0  0  0  0  0
  -25.4136   -3.2567  -21.2173 H   0  0  0  0  0  0  0  0  0  0  0  0
  -25.7978   -5.0078  -21.3802 H   0  0  0  0  0  0  0  0  0  0  0  0
  -25.0864   -2.1645  -31.1435 H   0  0  0  0  0  0  0  0  0  0  0  0
  -23.3701   -1.8564  -30.7341 H   0  0  0  0  0  0  0  0  0  0  0  0
  -24.6302   -1.7111  -29.4806 H   0  0  0  0  0  0  0  0  0  0  0  0
  -23.0720   -4.5720  -32.0478 H   0  0  0  0  0  0  0  0  0  0  0  0
  -22.5014   -5.9395  -31.0778 H   0  0  0  0  0  0  0  0  0  0  0  0
  -25.4580   -3.9629  -23.4657 H   0  0  0  0  0  0  0  0  0  0  0  0
  1  3  1  0  0  0  0
  1 10  2  0  0  0  0
  2  4  2  0  0  0  0
  2 10  1  0  0  0  0
  3 14  2  0  0  0  0
  4 14  1  0  0  0  0
  5  9  1  0  0  0  0
  5 12  2  0  0  0  0
  6 11  1  0  0  0  0
  6 13  2  0  0  0  0
  7  8  2  0  0  0  0
  7 29  1  0  0  0  0
  8 30  1  0  0  0  0
  9 11  2  0  0  0  0
  9 25  1  0  0  0  0
 10 28  1  0  0  0  0
 11 31  1  0  0  0  0
 12 13  1  0  0  0  0
 12 33  1  0  0  0  0
 13 34  1  0  0  0  0
 14 35  1  0  0  0  0
 15 16  1  0  0  0  0
 15 29  2  0  0  0  0
 15 30  1  0  0  0  0
 16 19  2  0  0  0  0
 17 18  2  0  0  0  0
 17 19  1  0  0  0  0
 18 30  1  0  0  0  0
 19 31  1  0  0  0  0
 20 23  1  0  0  0  0
 20 25  1  0  0  0  0
 21 24  1  0  0  0  0
 21 25  1  0  0  0  0
 22 25  1  0  0  0  0
 22 31  1  0  0  0  0
 23 32  1  0  0  0  0
 24 32  1  0  0  0  0
 26 32  1  0  0  0  0
 27 33  1  0  0  0  0
 28 34  1  0  0  0  0
  1 36  1  0  0  0  0
  2 37  1  0  0  0  0
  3 38  1  0  0  0  0
  4 39  1  0  0  0  0
  5 40  1  0  0  0  0
  6 41  1  0  0  0  0
  7 42  1  0  0  0  0
  8 43  1  0  0  0  0
 16 44  1  0  0  0  0
 17 45  1  0  0  0  0
 18 46  1  0  0  0  0
 20 47  1  0  0  0  0
 20 48  1  0  0  0  0
 21 49  1  0  0  0  0
 21 50  1  0  0  0  0
 22 51  1  0  0  0  0
 22 52  1  0  0  0  0
 23 53  1  0  0  0  0
 23 54  1  0  0  0  0
 24 55  1  0  0  0  0
 24 56  1  0  0  0  0
 26 57  1  0  0  0  0
 26 58  1  0  0  0  0
 26 59  1  0  0  0  0
 27 60  1  0  0  0  0
 27 61  1  0  0  0  0
 27 62  1  0  0  0  0
 28 63  1  0  0  0  0
 28 64  1  0  0  0  0
 32 65  1  0  0  0  0
M  CHG  1  32   1
M  END
> <SMILES>
COc1cc2c(cc1OCc1ccc(cc1)F)N(CC12CCN(C)CC1)c1ccn2ccnc2c1

> <FORMATTED_ID>
H3D-013385

> <MOLFORMULA>
C28H29FN4O2

> <Exact Mass>
472.23

> <XLogP>
6.17

> <TPSA_NOPS>
42.2

> <s_m_source_file>
ligprep_h3d.sdf

> <i_m_source_file_index>
5133

> <i_lp_mmshare_version>
55123

> <i_f3d_flags>
0

> <s_epik_input>
W2NIXTFbY0hdYyhGKVtjSF1bY0hdYzFbQ0gyXU9jKGMoW2NIXTIpT1tDSDNdKVtjSF1jKGMyQzM0W0NIMl1bQ0gyXU4oW0NIM10pW0NIMl1bQ0gyXTQpTihbQ0gyXTMpYyhbY0hdW2NIXTUpW2NIXWMobjU2KW5bY0hdW2NIXTY=

> <s_epik_cmdline>
J2VwaWtfcHl0aG9uJywgJy1waHQnLCAnMC41JywgJy1waCcsICc3LjUnLCAnLXRuJywgJzgnLCAnLW1hJywgJzUwMCcsICctaW1hZScsICc8aW5maWxlLm1hZT4nLCAnLW9tYWUnLCAnPG91dGZpbGUubWFlPic=

> <r_lp_tautomer_probability>
1

> <r_epik_Ionization_Penalty>
0.43281

> <r_epik_Ionization_Penalty_Charging>
0.43281

> <r_epik_Ionization_Penalty_Neutral>
3.07946e-10

> <r_epik_State_Penalty>
0.425628

> <r_epik_Charging_Adjusted_Penalty>
0.858438

> <i_epik_Tot_Q>
1

> <i_epik_Tot_abs_Q>
1

> <s_lp_Force_Field>
S-OPLS

> <r_lp_Energy>
71.2221

> <b_lp_Chiralities_Consistent>
1

> <s_lp_Variant>
ligprep_h3d.sdf:5133-2

> <ROCS_ShapeQuery>
_7L13

> <ROCS_TanimotoCombo>
0.772 

> <ROCS_ShapeTanimoto>
0.671 

> <ROCS_ColorTanimoto>
0.101 

> <ROCS_RefTversky>
0.797 

> <ROCS_RefColorTversky>
0.202 

> <ROCS_RefTverskyCombo>
0.999 

> <ROCS_FitTversky>
0.808 

> <ROCS_FitColorTversky>
0.168 

> <ROCS_FitTverskyCombo>
0.977 

> <ROCS_ColorScore>
-1.840

> <ROCS_Overlap>
1322.653

> <ROCS_Rank>
228                 

$$$$
ligprep_h3d.sdf:5344_1023
  -OEChem-08212117123D

 72 77  0     0  0  0  0  0  0999 V2000
  -18.8099   -6.9613  -35.4330 C   0  0  0  0  0  0  0  0  0  0  0  0
  -19.9053   -7.7163  -35.0140 C   0  0  0  0  0  0  0  0  0  0  0  0
  -18.6030   -5.6839  -34.9123 C   0  0  0  0  0  0  0  0  0  0  0  0
  -20.7940   -7.1938  -34.0743 C   0  0  0  0  0  0  0  0  0  0  0  0
  -19.4916   -5.1614  -33.9726 C   0  0  0  0  0  0  0  0  0  0  0  0
  -23.0417   -3.8464  -28.8147 C   0  0  0  0  0  0  0  0  0  0  0  0
  -20.4097   -4.6925  -29.3526 C   0  0  0  0  0  0  0  0  0  0  0  0
  -15.0390   -6.8849  -26.4513 C   0  0  0  0  0  0  0  0  0  0  0  0
  -14.4429   -5.8734  -25.7447 C   0  0  0  0  0  0  0  0  0  0  0  0
  -22.1692   -4.1692  -27.7822 C   0  0  0  0  0  0  0  0  0  0  0  0
  -20.5871   -5.9164  -33.5536 C   0  0  0  0  0  0  0  0  0  0  0  0
  -20.8584   -4.5889  -28.0410 C   0  0  0  0  0  0  0  0  0  0  0  0
  -22.5869   -3.9423  -30.1292 C   0  0  0  0  0  0  0  0  0  0  0  0
  -21.2792   -4.3640  -30.3965 C   0  0  0  0  0  0  0  0  0  0  0  0
  -16.5587   -5.3178  -26.0596 C   0  0  0  0  0  0  0  0  0  0  0  0
  -17.8955   -4.6662  -26.1003 C   0  0  0  0  0  0  0  0  0  0  0  0
  -18.5695   -6.6422  -27.3407 C   0  0  0  0  0  0  0  0  0  0  0  0
  -17.3496   -7.2099  -27.2888 C   0  0  0  0  0  0  0  0  0  0  0  0
  -18.8813   -5.3339  -26.7384 C   0  0  0  0  0  0  0  0  0  0  0  0
  -23.3815   -2.9035  -24.3037 C   0  0  0  0  0  0  0  0  0  0  0  0
  -23.7734   -5.4000  -24.4652 C   0  0  0  0  0  0  0  0  0  0  0  0
  -23.0287   -2.8574  -25.7914 C   0  0  0  0  0  0  0  0  0  0  0  0
  -23.3798   -5.3674  -25.9449 C   0  0  0  0  0  0  0  0  0  0  0  0
  -20.9961   -4.4228  -25.7437 C   0  0  0  0  0  0  0  0  0  0  0  0
  -24.3381   -4.0562  -24.0148 C   0  0  0  0  0  0  0  0  0  0  0  0
  -22.4406   -4.1907  -26.2960 C   0  0  0  0  0  0  0  0  0  0  0  0
  -25.1431   -2.8111  -22.0143 C   0  0  0  0  0  0  0  0  0  0  0  0
  -25.4742   -5.2746  -22.1637 C   0  0  0  0  0  0  0  0  0  0  0  0
  -23.4356   -2.2729  -31.5950 C   0  0  0  0  0  0  0  0  0  0  0  0
  -21.5428   -5.3537  -32.5429 C   0  0  0  0  0  0  0  0  0  0  0  0
  -16.3553   -6.5174  -26.6357 N   0  0  0  0  0  0  0  0  0  0  0  0
  -15.4060   -4.9183  -25.5162 N   0  3  0  0  0  0  0  0  0  0  0  0
  -20.1480   -4.8661  -26.8569 N   0  0  0  0  0  0  0  0  0  0  0  0
  -24.5983   -4.1103  -22.5516 N   0  3  0  0  0  0  0  0  0  0  0  0
  -23.4318   -3.6281  -31.1517 O   0  0  0  0  0  0  0  0  0  0  0  0
  -20.8387   -4.4603  -31.6836 O   0  0  0  0  0  0  0  0  0  0  0  0
  -18.1173   -7.3688  -36.1637 H   0  0  0  0  0  0  0  0  0  0  0  0
  -20.0660   -8.7113  -35.4185 H   0  0  0  0  0  0  0  0  0  0  0  0
  -17.7496   -5.0962  -35.2374 H   0  0  0  0  0  0  0  0  0  0  0  0
  -21.6449   -7.7892  -33.7538 H   0  0  0  0  0  0  0  0  0  0  0  0
  -19.3226   -4.1652  -33.5724 H   0  0  0  0  0  0  0  0  0  0  0  0
  -24.0606   -3.5358  -28.6064 H   0  0  0  0  0  0  0  0  0  0  0  0
  -19.3989   -5.0166  -29.5799 H   0  0  0  0  0  0  0  0  0  0  0  0
  -14.7047   -7.8233  -26.8517 H   0  0  0  0  0  0  0  0  0  0  0  0
  -13.4592   -5.6853  -25.3623 H   0  0  0  0  0  0  0  0  0  0  0  0
  -18.0363   -3.7009  -25.6302 H   0  0  0  0  0  0  0  0  0  0  0  0
  -19.3743   -7.1652  -27.8497 H   0  0  0  0  0  0  0  0  0  0  0  0
  -17.1103   -8.1697  -27.7278 H   0  0  0  0  0  0  0  0  0  0  0  0
  -22.4635   -3.0085  -23.7121 H   0  0  0  0  0  0  0  0  0  0  0  0
  -23.8410   -1.9506  -24.0146 H   0  0  0  0  0  0  0  0  0  0  0  0
  -24.5174   -6.1911  -24.3111 H   0  0  0  0  0  0  0  0  0  0  0  0
  -22.9002   -5.6685  -23.8587 H   0  0  0  0  0  0  0  0  0  0  0  0
  -23.9402   -2.6116  -26.3522 H   0  0  0  0  0  0  0  0  0  0  0  0
  -22.3301   -2.0311  -25.9756 H   0  0  0  0  0  0  0  0  0  0  0  0
  -22.9183   -6.3260  -26.2157 H   0  0  0  0  0  0  0  0  0  0  0  0
  -24.2997   -5.2955  -26.5412 H   0  0  0  0  0  0  0  0  0  0  0  0
  -20.5763   -3.4897  -25.3445 H   0  0  0  0  0  0  0  0  0  0  0  0
  -20.9757   -5.1570  -24.9308 H   0  0  0  0  0  0  0  0  0  0  0  0
  -25.3093   -3.8734  -24.4890 H   0  0  0  0  0  0  0  0  0  0  0  0
  -26.1035   -2.6259  -22.4988 H   0  0  0  0  0  0  0  0  0  0  0  0
  -25.2625   -2.9199  -20.9346 H   0  0  0  0  0  0  0  0  0  0  0  0
  -24.4252   -2.0239  -22.2524 H   0  0  0  0  0  0  0  0  0  0  0  0
  -26.4417   -5.1417  -22.6514 H   0  0  0  0  0  0  0  0  0  0  0  0
  -24.9850   -6.1890  -22.5046 H   0  0  0  0  0  0  0  0  0  0  0  0
  -25.5783   -5.2668  -21.0770 H   0  0  0  0  0  0  0  0  0  0  0  0
  -24.1516   -2.1581  -32.4124 H   0  0  0  0  0  0  0  0  0  0  0  0
  -22.4336   -1.9962  -31.9326 H   0  0  0  0  0  0  0  0  0  0  0  0
  -23.7289   -1.6277  -30.7635 H   0  0  0  0  0  0  0  0  0  0  0  0
  -22.3569   -4.8097  -33.0339 H   0  0  0  0  0  0  0  0  0  0  0  0
  -21.9875   -6.1543  -31.9420 H   0  0  0  0  0  0  0  0  0  0  0  0
  -15.2629   -4.0465  -25.0139 H   0  0  0  0  0  0  0  0  0  0  0  0
  -23.6923   -4.2608  -22.0780 H   0  0  0  0  0  0  0  0  0  0  0  0
  1  2  2  0  0  0  0
  1  3  1  0  0  0  0
  2  4  1  0  0  0  0
  3  5  2  0  0  0  0
  4 11  2  0  0  0  0
  5 11  1  0  0  0  0
  6 10  1  0  0  0  0
  6 13  2  0  0  0  0
  7 12  1  0  0  0  0
  7 14  2  0  0  0  0
  8  9  2  0  0  0  0
  8 31  1  0  0  0  0
  9 32  1  0  0  0  0
 10 12  2  0  0  0  0
 10 26  1  0  0  0  0
 11 30  1  0  0  0  0
 12 33  1  0  0  0  0
 13 14  1  0  0  0  0
 13 35  1  0  0  0  0
 14 36  1  0  0  0  0
 15 16  1  0  0  0  0
 15 31  1  0  0  0  0
 15 32  2  0  0  0  0
 16 19  2  0  0  0  0
 17 18  2  0  0  0  0
 17 19  1  0  0  0  0
 18 31  1  0  0  0  0
 19 33  1  0  0  0  0
 20 22  1  0  0  0  0
 20 25  1  0  0  0  0
 21 23  1  0  0  0  0
 21 25  1  0  0  0  0
 22 26  1  0  0  0  0
 23 26  1  0  0  0  0
 24 26  1  0  0  0  0
 24 33  1  0  0  0  0
 25 34  1  0  0  0  0
 27 34  1  0  0  0  0
 28 34  1  0  0  0  0
 29 35  1  0  0  0  0
 30 36  1  0  0  0  0
  1 37  1  0  0  0  0
  2 38  1  0  0  0  0
  3 39  1  0  0  0  0
  4 40  1  0  0  0  0
  5 41  1  0  0  0  0
  6 42  1  0  0  0  0
  7 43  1  0  0  0  0
  8 44  1  0  0  0  0
  9 45  1  0  0  0  0
 16 46  1  0  0  0  0
 17 47  1  0  0  0  0
 18 48  1  0  0  0  0
 20 49  1  0  0  0  0
 20 50  1  0  0  0  0
 21 51  1  0  0  0  0
 21 52  1  0  0  0  0
 22 53  1  0  0  0  0
 22 54  1  0  0  0  0
 23 55  1  0  0  0  0
 23 56  1  0  0  0  0
 24 57  1  0  0  0  0
 24 58  1  0  0  0  0
 25 59  1  0  0  0  0
 27 60  1  0  0  0  0
 27 61  1  0  0  0  0
 27 62  1  0  0  0  0
 28 63  1  0  0  0  0
 28 64  1  0  0  0  0
 28 65  1  0  0  0  0
 29 66  1  0  0  0  0
 29 67  1  0  0  0  0
 29 68  1  0  0  0  0
 30 69  1  0  0  0  0
 30 70  1  0  0  0  0
 32 71  1  0  0  0  0
 34 72  1  0  0  0  0
M  CHG  2  32   1  34   1
M  END
> <SMILES>
COc1cc2c(cc1OCc1ccccc1)N(CC12CCC(CC1)N(C)C)c1ccn2ccnc2c1

> <FORMATTED_ID>
H3D-014975

> <MOLFORMULA>
C30H34N4O2

> <Exact Mass>
482.27

> <XLogP>
7.06

> <TPSA_NOPS>
42.2

> <s_m_source_file>
ligprep_h3d.sdf

> <i_m_source_file_index>
5344

> <i_lp_mmshare_version>
55123

> <i_f3d_flags>
0

> <s_epik_input>
W2NIXTFbY0hdW2NIXVtjSF1bY0hdYzFbQ0gyXU9jKGMoW2NIXTIpT1tDSDNdKVtjSF1jKGMyW0NAXTM0W0NIMl1bQ0gyXVtDQEhdKFtDSDJdW0NIMl00KU4oW0NIM10pW0NIM10pTihbQ0gyXTMpYyhbY0hdW2NIXTUpW2NIXWMobjU2KW5bY0hdW2NIXTY=

> <s_epik_cmdline>
J2VwaWtfcHl0aG9uJywgJy1waHQnLCAnMC41JywgJy1waCcsICc3LjUnLCAnLXRuJywgJzgnLCAnLW1hJywgJzUwMCcsICctaW1hZScsICc8aW5maWxlLm1hZT4nLCAnLW9tYWUnLCAnPG91dGZpbGUubWFlPic=

> <r_lp_tautomer_probability>
1

> <r_epik_Ionization_Penalty>
0.340362

> <r_epik_Ionization_Penalty_Charging>
0.00391367

> <r_epik_Ionization_Penalty_Neutral>
0.336448

> <r_epik_State_Penalty>
0.331847

> <r_epik_Charging_Adjusted_Penalty>
0.335761

> <i_epik_Tot_Q>
2

> <i_epik_Tot_abs_Q>
2

> <s_lp_Force_Field>
S-OPLS

> <r_lp_Energy>
90.1909

> <b_lp_Chiralities_Consistent>
1

> <s_lp_Variant>
ligprep_h3d.sdf:5344-1

> <ROCS_ShapeQuery>
_7L13

> <ROCS_TanimotoCombo>
0.767 

> <ROCS_ShapeTanimoto>
0.660 

> <ROCS_ColorTanimoto>
0.107 

> <ROCS_RefTversky>
0.797 

> <ROCS_RefColorTversky>
0.222 

> <ROCS_RefTverskyCombo>
1.019 

> <ROCS_FitTversky>
0.794 

> <ROCS_FitColorTversky>
0.171 

> <ROCS_FitTverskyCombo>
0.965 

> <ROCS_ColorScore>
-2.032

> <ROCS_Overlap>
1323.817

> <ROCS_Rank>
229                 

$$$$
ligprep_h3d.sdf:2709_998
  -OEChem-08212117123D

 59 62  0     0  0  0  0  0  0999 V2000
  -19.0152   -5.0802  -24.2150 C   0  0  0  0  0  0  0  0  0  0  0  0
  -22.5345   -3.9071  -32.3382 C   0  0  0  0  0  0  0  0  0  0  0  0
  -23.2377   -2.6817  -30.3785 C   0  0  0  0  0  0  0  0  0  0  0  0
  -24.3452   -4.7592  -23.1108 C   0  0  0  0  0  0  0  0  0  0  0  0
  -24.8095   -4.1872  -25.8376 C   0  0  0  0  0  0  0  0  0  0  0  0
  -23.1825   -2.8125  -31.7661 C   0  0  0  0  0  0  0  0  0  0  0  0
  -21.9416   -4.8711  -31.5227 C   0  0  0  0  0  0  0  0  0  0  0  0
  -23.2675   -4.6338  -24.0064 C   0  0  0  0  0  0  0  0  0  0  0  0
  -23.5008   -4.3298  -25.3489 C   0  0  0  0  0  0  0  0  0  0  0  0
  -22.6448   -3.6457  -29.5629 C   0  0  0  0  0  0  0  0  0  0  0  0
  -21.9968   -4.7404  -30.1351 C   0  0  0  0  0  0  0  0  0  0  0  0
  -25.6457   -4.5946  -23.5903 C   0  0  0  0  0  0  0  0  0  0  0  0
  -25.8720   -4.3199  -24.9350 C   0  0  0  0  0  0  0  0  0  0  0  0
  -21.3281   -4.6009  -24.9122 C   0  0  0  0  0  0  0  0  0  0  0  0
  -20.4932   -4.0260  -27.5104 C   0  0  0  0  0  0  0  0  0  0  0  0
  -19.9358   -4.6965  -25.2344 C   0  0  0  0  0  0  0  0  0  0  0  0
  -19.5258   -4.4306  -26.4954 C   0  0  0  0  0  0  0  0  0  0  0  0
  -21.8107   -3.9292  -27.2355 C   0  0  0  0  0  0  0  0  0  0  0  0
  -23.8179   -1.7837  -32.6389 C   0  0  0  0  0  0  0  0  0  0  0  0
  -19.6355   -4.7332  -35.3439 C   0  0  0  0  0  0  0  0  0  0  0  0
  -19.6270   -7.8928  -33.7850 C   0  0  0  0  0  0  0  0  0  0  0  0
  -21.2525   -6.0358  -32.1544 C   0  0  0  0  0  0  0  0  0  0  0  0
  -19.8080   -4.9280  -33.8534 C   0  0  0  0  0  0  0  0  0  0  0  0
  -20.8224   -7.1495  -34.3399 C   0  0  0  0  0  0  0  0  0  0  0  0
  -18.1032   -4.4978  -26.9841 C   0  0  0  0  0  0  0  0  0  0  0  0
  -18.2666   -5.3925  -23.3857 N   0  0  0  0  0  0  0  0  0  0  0  0
  -21.9337   -4.7904  -23.7592 N   0  0  0  0  0  0  0  0  0  0  0  0
  -22.2329   -4.2536  -25.9256 N   0  0  0  0  0  0  0  0  0  0  0  0
  -22.7089   -3.5015  -28.1739 N   0  0  0  0  0  0  0  0  0  0  0  0
  -20.9797   -5.8431  -33.6046 N   0  3  0  0  0  0  0  0  0  0  0  0
  -21.4168   -5.6856  -29.3404 O   0  0  0  0  0  0  0  0  0  0  0  0
  -26.6830   -4.7165  -22.7510 F   0  0  0  0  0  0  0  0  0  0  0  0
  -27.1298   -4.1842  -25.3783 F   0  0  0  0  0  0  0  0  0  0  0  0
  -18.0321   -4.1612  -28.2850 F   0  0  0  0  0  0  0  0  0  0  0  0
  -17.3203   -3.6529  -26.2881 F   0  0  0  0  0  0  0  0  0  0  0  0
  -17.6073   -5.7410  -26.8441 F   0  0  0  0  0  0  0  0  0  0  0  0
  -22.4925   -4.0088  -33.4202 H   0  0  0  0  0  0  0  0  0  0  0  0
  -23.7442   -1.8276  -29.9345 H   0  0  0  0  0  0  0  0  0  0  0  0
  -24.1731   -4.9905  -22.0642 H   0  0  0  0  0  0  0  0  0  0  0  0
  -25.0298   -3.9952  -26.8797 H   0  0  0  0  0  0  0  0  0  0  0  0
  -20.1154   -3.7794  -28.4991 H   0  0  0  0  0  0  0  0  0  0  0  0
  -24.8616   -2.0502  -32.8461 H   0  0  0  0  0  0  0  0  0  0  0  0
  -23.7992   -0.7932  -32.1660 H   0  0  0  0  0  0  0  0  0  0  0  0
  -23.2866   -1.6890  -33.5950 H   0  0  0  0  0  0  0  0  0  0  0  0
  -19.4212   -5.6910  -35.8279 H   0  0  0  0  0  0  0  0  0  0  0  0
  -20.5431   -4.3207  -35.7968 H   0  0  0  0  0  0  0  0  0  0  0  0
  -18.8066   -4.0514  -35.5608 H   0  0  0  0  0  0  0  0  0  0  0  0
  -18.7141   -7.3094  -33.9394 H   0  0  0  0  0  0  0  0  0  0  0  0
  -19.7364   -8.0720  -32.7103 H   0  0  0  0  0  0  0  0  0  0  0  0
  -19.4979   -8.8608  -34.2802 H   0  0  0  0  0  0  0  0  0  0  0  0
  -20.2823   -6.2351  -31.6809 H   0  0  0  0  0  0  0  0  0  0  0  0
  -21.8522   -6.9516  -32.0714 H   0  0  0  0  0  0  0  0  0  0  0  0
  -20.0234   -3.9845  -33.3444 H   0  0  0  0  0  0  0  0  0  0  0  0
  -18.9304   -5.4001  -33.4031 H   0  0  0  0  0  0  0  0  0  0  0  0
  -21.7496   -7.7115  -34.1984 H   0  0  0  0  0  0  0  0  0  0  0  0
  -20.6929   -6.9086  -35.3987 H   0  0  0  0  0  0  0  0  0  0  0  0
  -23.5134   -3.0240  -27.7977 H   0  0  0  0  0  0  0  0  0  0  0  0
  -21.8036   -5.3764  -34.0177 H   0  0  0  0  0  0  0  0  0  0  0  0
  -21.0117   -6.3767  -29.8863 H   0  0  0  0  0  0  0  0  0  0  0  0
  1 16  1  0  0  0  0
  1 26  3  0  0  0  0
  2  6  1  0  0  0  0
  2  7  2  0  0  0  0
  3  6  2  0  0  0  0
  3 10  1  0  0  0  0
  4  8  2  0  0  0  0
  4 12  1  0  0  0  0
  5  9  2  0  0  0  0
  5 13  1  0  0  0  0
  6 19  1  0  0  0  0
  7 11  1  0  0  0  0
  7 22  1  0  0  0  0
  8  9  1  0  0  0  0
  8 27  1  0  0  0  0
  9 28  1  0  0  0  0
 10 11  2  0  0  0  0
 10 29  1  0  0  0  0
 11 31  1  0  0  0  0
 12 13  2  0  0  0  0
 12 32  1  0  0  0  0
 13 33  1  0  0  0  0
 14 16  1  0  0  0  0
 14 27  2  0  0  0  0
 14 28  1  0  0  0  0
 15 17  1  0  0  0  0
 15 18  2  0  0  0  0
 16 17  2  0  0  0  0
 17 25  1  0  0  0  0
 18 28  1  0  0  0  0
 18 29  1  0  0  0  0
 20 23  1  0  0  0  0
 21 24  1  0  0  0  0
 22 30  1  0  0  0  0
 23 30  1  0  0  0  0
 24 30  1  0  0  0  0
 25 34  1  0  0  0  0
 25 35  1  0  0  0  0
 25 36  1  0  0  0  0
  2 37  1  0  0  0  0
  3 38  1  0  0  0  0
  4 39  1  0  0  0  0
  5 40  1  0  0  0  0
 15 41  1  0  0  0  0
 19 42  1  0  0  0  0
 19 43  1  0  0  0  0
 19 44  1  0  0  0  0
 20 45  1  0  0  0  0
 20 46  1  0  0  0  0
 20 47  1  0  0  0  0
 21 48  1  0  0  0  0
 21 49  1  0  0  0  0
 21 50  1  0  0  0  0
 22 51  1  0  0  0  0
 22 52  1  0  0  0  0
 23 53  1  0  0  0  0
 23 54  1  0  0  0  0
 24 55  1  0  0  0  0
 24 56  1  0  0  0  0
 29 57  1  0  0  0  0
 30 58  1  0  0  0  0
 31 59  1  0  0  0  0
M  CHG  1  30   1
M  END
> <SMILES>
CCN(CC)Cc1cc(cc(c1O)Nc1cc(c(c2nc3cc(c(cc3n12)F)F)C#N)C(F)(F)F)C

> <FORMATTED_ID>
H3D-008164

> <MOLFORMULA>
C25H22F5N5O

> <Exact Mass>
503.17

> <XLogP>
6.87

> <TPSA_NOPS>
76.6

> <s_m_source_file>
ligprep_h3d.sdf

> <i_m_source_file_index>
2709

> <i_lp_mmshare_version>
55123

> <i_f3d_flags>
0

> <s_epik_input>
W0NIM11bQ0gyXU4oW0NIMl1bQ0gzXSlbQ0gyXWMxW2NIXWMoW0NIM10pW2NIXWMoYzFbT0hdKVtOSF1jKFtjSF1jKEMoRikoRilGKWMyQyNOKW4oYzIzKWM0YyhuMylbY0hdYyhGKWMoRilbY0hdNA==

> <s_epik_cmdline>
J2VwaWtfcHl0aG9uJywgJy1waHQnLCAnMC41JywgJy1waCcsICc3LjUnLCAnLXRuJywgJzgnLCAnLW1hJywgJzUwMCcsICctaW1hZScsICc8aW5maWxlLm1hZT4nLCAnLW9tYWUnLCAnPG91dGZpbGUubWFlPic=

> <r_lp_tautomer_probability>
1

> <r_epik_Ionization_Penalty>
0.0573837

> <r_epik_Ionization_Penalty_Charging>
0.0479841

> <r_epik_Ionization_Penalty_Neutral>
0.00939965

> <r_epik_State_Penalty>
-0

> <r_epik_Charging_Adjusted_Penalty>
0.0479841

> <i_epik_Tot_Q>
1

> <i_epik_Tot_abs_Q>
1

> <s_lp_Force_Field>
S-OPLS

> <r_lp_Energy>
63.5059

> <b_lp_Chiralities_Consistent>
1

> <s_lp_Variant>
ligprep_h3d.sdf:2709-1

> <ROCS_ShapeQuery>
_7L13

> <ROCS_TanimotoCombo>
0.791 

> <ROCS_ShapeTanimoto>
0.660 

> <ROCS_ColorTanimoto>
0.131 

> <ROCS_RefTversky>
0.797 

> <ROCS_RefColorTversky>
0.255 

> <ROCS_RefTverskyCombo>
1.052 

> <ROCS_FitTversky>
0.793 

> <ROCS_FitColorTversky>
0.212 

> <ROCS_FitTverskyCombo>
1.005 

> <ROCS_ColorScore>
-2.319

> <ROCS_Overlap>
1323.891

> <ROCS_Rank>
230                 

$$$$
ligprep_h3d.sdf:4997_1552
  -OEChem-08212117123D

 63 67  0     1  0  0  0  0  0999 V2000
  -21.6535   -6.1723  -32.9561 C   0  0  0  0  0  0  0  0  0  0  0  0
  -23.2178   -4.3132  -24.0524 C   0  0  0  0  0  0  0  0  0  0  0  0
  -25.2740   -5.0111  -25.1118 C   0  0  0  0  0  0  0  0  0  0  0  0
  -21.6408   -7.3910  -33.6345 C   0  0  0  0  0  0  0  0  0  0  0  0
  -23.8967   -4.1452  -22.8455 C   0  0  0  0  0  0  0  0  0  0  0  0
  -25.9528   -4.8431  -23.9049 C   0  0  0  0  0  0  0  0  0  0  0  0
  -19.8380   -5.3825  -34.3408 C   0  0  0  0  0  0  0  0  0  0  0  0
  -16.8391   -5.3697  -25.4658 C   0  0  0  0  0  0  0  0  0  0  0  0
  -17.4806   -3.0496  -25.2600 C   0  0  0  0  0  0  0  0  0  0  0  0
  -15.7769   -3.9649  -23.8120 C   0  0  0  0  0  0  0  0  0  0  0  0
  -20.7521   -5.1680  -33.3093 C   0  0  0  0  0  0  0  0  0  0  0  0
  -17.6208   -4.2913  -25.8799 C   0  0  0  0  0  0  0  0  0  0  0  0
  -23.9065   -4.7461  -25.1855 C   0  0  0  0  0  0  0  0  0  0  0  0
  -20.7266   -7.6055  -34.6660 C   0  0  0  0  0  0  0  0  0  0  0  0
  -25.2641   -4.4101  -22.7717 C   0  0  0  0  0  0  0  0  0  0  0  0
  -15.9171   -5.2066  -24.4318 C   0  0  0  0  0  0  0  0  0  0  0  0
  -16.5586   -2.8864  -24.2260 C   0  0  0  0  0  0  0  0  0  0  0  0
  -19.8252   -6.6012  -35.0192 C   0  0  0  0  0  0  0  0  0  0  0  0
  -21.7752   -3.7828  -31.4536 C   0  0  0  0  0  0  0  0  0  0  0  0
  -22.1865   -4.1803  -29.0408 C   0  0  0  0  0  0  0  0  0  0  0  0
  -18.8893   -5.5875  -27.7120 C   0  0  0  0  0  0  0  0  0  0  0  0
  -19.2355   -3.5086  -27.7305 C   0  0  0  0  0  0  0  0  0  0  0  0
  -19.9730   -4.6764  -29.9081 C   0  0  0  0  0  0  0  0  0  0  0  0
  -21.4375   -5.0030  -28.0011 C   0  0  1  0  0  0  0  0  0  0  0  0
  -19.9760   -4.7126  -28.3773 C   0  0  0  0  0  0  0  0  0  0  0  0
  -21.8353   -4.6719  -26.5748 C   0  0  0  0  0  0  0  0  0  0  0  0
  -20.7663   -3.8459  -32.5724 C   0  0  2  0  0  0  0  0  0  0  0  0
  -18.5469   -4.4547  -26.9193 N   0  0  0  0  0  0  0  0  0  0  0  0
  -21.3199   -4.1957  -30.2118 N   0  0  0  0  0  0  0  0  0  0  0  0
  -21.0068   -2.6907  -33.4150 N   0  0  0  0  0  0  0  0  0  0  0  0
  -23.2267   -4.9144  -26.3941 N   0  0  0  0  0  0  0  0  0  0  0  0
  -22.9191   -3.3785  -31.6690 O   0  0  0  0  0  0  0  0  0  0  0  0
  -20.7377   -8.8057  -35.3121 O   0  0  0  0  0  0  0  0  0  0  0  0
  -25.9160   -4.2488  -21.6127 F   0  0  0  0  0  0  0  0  0  0  0  0
  -15.1654   -6.2420  -24.0358 F   0  0  0  0  0  0  0  0  0  0  0  0
  -16.4225   -1.6935  -23.6322 F   0  0  0  0  0  0  0  0  0  0  0  0
  -18.6844   -6.8395  -36.2914 Cl  0  0  0  0  0  0  0  0  0  0  0  0
  -22.3689   -6.0141  -32.1535 H   0  0  0  0  0  0  0  0  0  0  0  0
  -22.1521   -4.1042  -24.0986 H   0  0  0  0  0  0  0  0  0  0  0  0
  -25.8206   -5.3486  -25.9886 H   0  0  0  0  0  0  0  0  0  0  0  0
  -22.3460   -8.1687  -33.3539 H   0  0  0  0  0  0  0  0  0  0  0  0
  -23.3608   -3.8084  -21.9630 H   0  0  0  0  0  0  0  0  0  0  0  0
  -27.0176   -5.0489  -23.8469 H   0  0  0  0  0  0  0  0  0  0  0  0
  -19.1378   -4.5950  -34.6109 H   0  0  0  0  0  0  0  0  0  0  0  0
  -16.9396   -6.3412  -25.9425 H   0  0  0  0  0  0  0  0  0  0  0  0
  -18.0839   -2.2023  -25.5755 H   0  0  0  0  0  0  0  0  0  0  0  0
  -15.0578   -3.8382  -23.0080 H   0  0  0  0  0  0  0  0  0  0  0  0
  -23.1196   -4.6721  -29.3314 H   0  0  0  0  0  0  0  0  0  0  0  0
  -22.4126   -3.1582  -28.7306 H   0  0  0  0  0  0  0  0  0  0  0  0
  -19.2531   -6.4240  -27.1004 H   0  0  0  0  0  0  0  0  0  0  0  0
  -18.0648   -5.9318  -28.3466 H   0  0  0  0  0  0  0  0  0  0  0  0
  -18.5736   -2.9396  -28.3856 H   0  0  0  0  0  0  0  0  0  0  0  0
  -19.8619   -2.8343  -27.1399 H   0  0  0  0  0  0  0  0  0  0  0  0
  -19.2597   -3.9424  -30.2977 H   0  0  0  0  0  0  0  0  0  0  0  0
  -19.7891   -5.6464  -30.3788 H   0  0  0  0  0  0  0  0  0  0  0  0
  -21.6748   -6.1002  -28.1742 H   0  0  0  0  0  0  0  0  0  0  0  0
  -21.2459   -5.3106  -25.9193 H   0  0  0  0  0  0  0  0  0  0  0  0
  -21.6043   -3.6207  -26.4116 H   0  0  0  0  0  0  0  0  0  0  0  0
  -19.7875   -3.6912  -32.1055 H   0  0  0  0  0  0  0  0  0  0  0  0
  -21.1176   -2.9971  -34.3560 H   0  0  0  0  0  0  0  0  0  0  0  0
  -21.8348   -2.2335  -33.1034 H   0  0  0  0  0  0  0  0  0  0  0  0
  -23.7836   -5.2326  -27.1916 H   0  0  0  0  0  0  0  0  0  0  0  0
  -21.4248   -9.3797  -34.9393 H   0  0  0  0  0  0  0  0  0  0  0  0
  1  4  1  0  0  0  0
  1 11  2  0  0  0  0
  2  5  1  0  0  0  0
  2 13  2  0  0  0  0
  3  6  2  0  0  0  0
  3 13  1  0  0  0  0
  4 14  2  0  0  0  0
  5 15  2  0  0  0  0
  6 15  1  0  0  0  0
  7 11  1  0  0  0  0
  7 18  2  0  0  0  0
  8 12  2  0  0  0  0
  8 16  1  0  0  0  0
  9 12  1  0  0  0  0
  9 17  2  0  0  0  0
 10 16  2  0  0  0  0
 10 17  1  0  0  0  0
 11 27  1  0  0  0  0
 12 28  1  0  0  0  0
 13 31  1  0  0  0  0
 14 18  1  0  0  0  0
 14 33  1  0  0  0  0
 15 34  1  0  0  0  0
 16 35  1  0  0  0  0
 17 36  1  0  0  0  0
 18 37  1  0  0  0  0
 19 27  1  0  0  0  0
 19 29  1  0  0  0  0
 19 32  2  0  0  0  0
 20 24  1  0  0  0  0
 20 29  1  0  0  0  0
 21 25  1  0  0  0  0
 21 28  1  0  0  0  0
 22 25  1  0  0  0  0
 22 28  1  0  0  0  0
 23 25  1  0  0  0  0
 23 29  1  0  0  0  0
 24 25  1  0  0  0  0
 24 26  1  0  0  0  0
 26 31  1  0  0  0  0
 27 30  1  0  0  0  0
  1 38  1  0  0  0  0
  2 39  1  0  0  0  0
  3 40  1  0  0  0  0
  4 41  1  0  0  0  0
  5 42  1  0  0  0  0
  6 43  1  0  0  0  0
  7 44  1  0  0  0  0
  8 45  1  0  0  0  0
  9 46  1  0  0  0  0
 10 47  1  0  0  0  0
 20 48  1  0  0  0  0
 20 49  1  0  0  0  0
 21 50  1  0  0  0  0
 21 51  1  0  0  0  0
 22 52  1  0  0  0  0
 22 53  1  0  0  0  0
 23 54  1  0  0  0  0
 23 55  1  0  0  0  0
 24 56  1  0  0  0  0
 26 57  1  0  0  0  0
 26 58  1  0  0  0  0
 27 59  1  0  0  0  0
 30 60  1  0  0  0  0
 30 61  1  0  0  0  0
 31 62  1  0  0  0  0
 33 63  1  0  0  0  0
M  END
> <SMILES>
N[C@@H](C(=O)N1CC(CNc2ccc(cc2)F)C2(C1)CN(C2)c1cc(cc(c1)F)F)c1ccc(c(c1)Cl)O

> <FORMATTED_ID>
H3D-008863

> <MOLFORMULA>
C27H26ClF3N4O2

> <Exact Mass>
530.17

> <XLogP>
3.78

> <TPSA_NOPS>
81.8

> <s_m_source_file>
ligprep_h3d.sdf

> <i_m_source_file_index>
4997

> <i_lp_mmshare_version>
55123

> <i_f3d_flags>
0

> <s_epik_input>
W2NIXTFjKENsKWMoW09IXSlbY0hdW2NIXWMxW0NAQEhdKFtOSDJdKUMoPU8pTihbQ0gyXTIpW0NIMl1bQ0BIXShbQ0gyXVtOSF1jM1tjSF1bY0hdYyhGKVtjSF1bY0hdMylDMjRbQ0gyXU4oW0NIMl00KWM1W2NIXWMoRilbY0hdYyhGKVtjSF01

> <s_epik_cmdline>
J2VwaWtfcHl0aG9uJywgJy1waHQnLCAnMC41JywgJy1waCcsICc3LjUnLCAnLXRuJywgJzgnLCAnLW1hJywgJzUwMCcsICctaW1hZScsICc8aW5maWxlLm1hZT4nLCAnLW9tYWUnLCAnPG91dGZpbGUubWFlPic=

> <r_lp_tautomer_probability>
1

> <r_epik_Ionization_Penalty>
0.107454

> <r_epik_Ionization_Penalty_Charging>
0

> <r_epik_Ionization_Penalty_Neutral>
0.107454

> <r_epik_State_Penalty>
-0

> <r_epik_Charging_Adjusted_Penalty>
0

> <i_epik_Tot_Q>
0

> <i_epik_Tot_abs_Q>
0

> <s_lp_Force_Field>
S-OPLS

> <r_lp_Energy>
40.3657

> <b_lp_Chiralities_Consistent>
1

> <s_lp_Variant>
ligprep_h3d.sdf:4997-1

> <ROCS_ShapeQuery>
_7L13

> <ROCS_TanimotoCombo>
0.709 

> <ROCS_ShapeTanimoto>
0.656 

> <ROCS_ColorTanimoto>
0.053 

> <ROCS_RefTversky>
0.797 

> <ROCS_RefColorTversky>
0.111 

> <ROCS_RefTverskyCombo>
0.908 

> <ROCS_FitTversky>
0.787 

> <ROCS_FitColorTversky>
0.093 

> <ROCS_FitTverskyCombo>
0.880 

> <ROCS_ColorScore>
-1.011

> <ROCS_Overlap>
1324.390

> <ROCS_Rank>
231                 

$$$$
ligprep_h3d.sdf:4995_792
  -OEChem-08212117123D

 62 66  0     1  0  0  0  0  0999 V2000
  -23.2265   -4.2867  -24.0560 C   0  0  0  0  0  0  0  0  0  0  0  0
  -25.2692   -5.0271  -25.1126 C   0  0  0  0  0  0  0  0  0  0  0  0
  -23.9079   -4.1290  -22.8492 C   0  0  0  0  0  0  0  0  0  0  0  0
  -25.9506   -4.8694  -23.9058 C   0  0  0  0  0  0  0  0  0  0  0  0
  -19.8314   -5.3145  -34.3437 C   0  0  0  0  0  0  0  0  0  0  0  0
  -21.6309   -6.1370  -32.9573 C   0  0  0  0  0  0  0  0  0  0  0  0
  -16.8291   -5.2220  -25.4702 C   0  0  0  0  0  0  0  0  0  0  0  0
  -17.5156   -2.9144  -25.2698 C   0  0  0  0  0  0  0  0  0  0  0  0
  -15.7937   -3.7927  -23.8204 C   0  0  0  0  0  0  0  0  0  0  0  0
  -20.7490   -5.1162  -33.3121 C   0  0  0  0  0  0  0  0  0  0  0  0
  -17.6319   -4.1601  -25.8865 C   0  0  0  0  0  0  0  0  0  0  0  0
  -23.9072   -4.7358  -25.1878 C   0  0  0  0  0  0  0  0  0  0  0  0
  -20.6776   -7.5544  -34.6659 C   0  0  0  0  0  0  0  0  0  0  0  0
  -25.2699   -4.4203  -22.7741 C   0  0  0  0  0  0  0  0  0  0  0  0
  -15.9100   -5.0384  -24.4371 C   0  0  0  0  0  0  0  0  0  0  0  0
  -16.5965   -2.7306  -24.2367 C   0  0  0  0  0  0  0  0  0  0  0  0
  -19.7957   -6.5336  -35.0207 C   0  0  0  0  0  0  0  0  0  0  0  0
  -21.5952   -7.3561  -33.6342 C   0  0  0  0  0  0  0  0  0  0  0  0
  -21.7980   -3.7465  -31.4593 C   0  0  0  0  0  0  0  0  0  0  0  0
  -22.2003   -4.1460  -29.0453 C   0  0  0  0  0  0  0  0  0  0  0  0
  -18.8757   -5.4854  -27.7148 C   0  0  0  0  0  0  0  0  0  0  0  0
  -19.2624   -3.4136  -27.7382 C   0  0  0  0  0  0  0  0  0  0  0  0
  -19.9780   -4.6010  -29.9126 C   0  0  0  0  0  0  0  0  0  0  0  0
  -21.4350   -4.9514  -28.0040 C   0  0  1  0  0  0  0  0  0  0  0  0
  -19.9796   -4.6335  -28.3817 C   0  0  0  0  0  0  0  0  0  0  0  0
  -21.8384   -4.6245  -26.5783 C   0  0  0  0  0  0  0  0  0  0  0  0
  -20.7886   -3.7927  -32.5785 C   0  0  2  0  0  0  0  0  0  0  0  0
  -18.5551   -4.3441  -26.9251 N   0  0  0  0  0  0  0  0  0  0  0  0
  -21.3342   -4.1474  -30.2168 N   0  0  0  0  0  0  0  0  0  0  0  0
  -21.0520   -2.6446  -33.4238 N   0  0  0  0  0  0  0  0  0  0  0  0
  -23.2248   -4.8937  -26.3963 N   0  0  0  0  0  0  0  0  0  0  0  0
  -20.6460   -8.6779  -35.2915 O   0  5  0  0  0  0  0  0  0  0  0  0
  -22.9498   -3.3652  -31.6751 O   0  0  0  0  0  0  0  0  0  0  0  0
  -25.9243   -4.2688  -21.6152 F   0  0  0  0  0  0  0  0  0  0  0  0
  -15.1380   -6.0579  -24.0389 F   0  0  0  0  0  0  0  0  0  0  0  0
  -16.4834   -1.5339  -23.6459 F   0  0  0  0  0  0  0  0  0  0  0  0
  -18.6196   -6.6884  -36.2917 Cl  0  0  0  0  0  0  0  0  0  0  0  0
  -22.7333   -8.5675  -33.1246 Cl  0  0  0  0  0  0  0  0  0  0  0  0
  -22.1651   -4.0570  -24.1033 H   0  0  0  0  0  0  0  0  0  0  0  0
  -25.8095   -5.3775  -25.9884 H   0  0  0  0  0  0  0  0  0  0  0  0
  -23.3783   -3.7796  -21.9679 H   0  0  0  0  0  0  0  0  0  0  0  0
  -27.0111   -5.0958  -23.8468 H   0  0  0  0  0  0  0  0  0  0  0  0
  -19.1481   -4.5118  -34.6129 H   0  0  0  0  0  0  0  0  0  0  0  0
  -22.3431   -5.9721  -32.1515 H   0  0  0  0  0  0  0  0  0  0  0  0
  -16.9109   -6.1965  -25.9444 H   0  0  0  0  0  0  0  0  0  0  0  0
  -18.1355   -2.0798  -25.5870 H   0  0  0  0  0  0  0  0  0  0  0  0
  -15.0768   -3.6499  -23.0172 H   0  0  0  0  0  0  0  0  0  0  0  0
  -23.1238   -4.6567  -29.3343 H   0  0  0  0  0  0  0  0  0  0  0  0
  -22.4462   -3.1278  -28.7375 H   0  0  0  0  0  0  0  0  0  0  0  0
  -19.2228   -6.3273  -27.1010 H   0  0  0  0  0  0  0  0  0  0  0  0
  -18.0449   -5.8150  -28.3489 H   0  0  0  0  0  0  0  0  0  0  0  0
  -18.6120   -2.8335  -28.3951 H   0  0  0  0  0  0  0  0  0  0  0  0
  -19.9016   -2.7502  -27.1490 H   0  0  0  0  0  0  0  0  0  0  0  0
  -19.2794   -3.8542  -30.3044 H   0  0  0  0  0  0  0  0  0  0  0  0
  -19.7754   -5.5684  -30.3809 H   0  0  0  0  0  0  0  0  0  0  0  0
  -21.6509   -6.0534  -28.1742 H   0  0  0  0  0  0  0  0  0  0  0  0
  -21.2364   -5.2500  -25.9216 H   0  0  0  0  0  0  0  0  0  0  0  0
  -21.6280   -3.5686  -26.4179 H   0  0  0  0  0  0  0  0  0  0  0  0
  -19.8128   -3.6178  -32.1125 H   0  0  0  0  0  0  0  0  0  0  0  0
  -21.1573   -2.9553  -34.3640 H   0  0  0  0  0  0  0  0  0  0  0  0
  -21.8886   -2.2028  -33.1129 H   0  0  0  0  0  0  0  0  0  0  0  0
  -23.7757   -5.2247  -27.1927 H   0  0  0  0  0  0  0  0  0  0  0  0
  1  3  1  0  0  0  0
  1 12  2  0  0  0  0
  2  4  2  0  0  0  0
  2 12  1  0  0  0  0
  3 14  2  0  0  0  0
  4 14  1  0  0  0  0
  5 10  2  0  0  0  0
  5 17  1  0  0  0  0
  6 10  1  0  0  0  0
  6 18  2  0  0  0  0
  7 11  2  0  0  0  0
  7 15  1  0  0  0  0
  8 11  1  0  0  0  0
  8 16  2  0  0  0  0
  9 15  2  0  0  0  0
  9 16  1  0  0  0  0
 10 27  1  0  0  0  0
 11 28  1  0  0  0  0
 12 31  1  0  0  0  0
 13 17  2  0  0  0  0
 13 18  1  0  0  0  0
 13 32  1  0  0  0  0
 14 34  1  0  0  0  0
 15 35  1  0  0  0  0
 16 36  1  0  0  0  0
 17 37  1  0  0  0  0
 18 38  1  0  0  0  0
 19 27  1  0  0  0  0
 19 29  1  0  0  0  0
 19 33  2  0  0  0  0
 20 24  1  0  0  0  0
 20 29  1  0  0  0  0
 21 25  1  0  0  0  0
 21 28  1  0  0  0  0
 22 25  1  0  0  0  0
 22 28  1  0  0  0  0
 23 25  1  0  0  0  0
 23 29  1  0  0  0  0
 24 25  1  0  0  0  0
 24 26  1  0  0  0  0
 26 31  1  0  0  0  0
 27 30  1  0  0  0  0
  1 39  1  0  0  0  0
  2 40  1  0  0  0  0
  3 41  1  0  0  0  0
  4 42  1  0  0  0  0
  5 43  1  0  0  0  0
  6 44  1  0  0  0  0
  7 45  1  0  0  0  0
  8 46  1  0  0  0  0
  9 47  1  0  0  0  0
 20 48  1  0  0  0  0
 20 49  1  0  0  0  0
 21 50  1  0  0  0  0
 21 51  1  0  0  0  0
 22 52  1  0  0  0  0
 22 53  1  0  0  0  0
 23 54  1  0  0  0  0
 23 55  1  0  0  0  0
 24 56  1  0  0  0  0
 26 57  1  0  0  0  0
 26 58  1  0  0  0  0
 27 59  1  0  0  0  0
 30 60  1  0  0  0  0
 30 61  1  0  0  0  0
 31 62  1  0  0  0  0
M  CHG  1  32  -1
M  END
> <SMILES>
N[C@@H](C(=O)N1CC(CNc2ccc(cc2)F)C2(C1)CN(C2)c1cc(cc(c1)F)F)c1cc(c(c(c1)Cl)O)Cl

> <FORMATTED_ID>
H3D-008846

> <MOLFORMULA>
C27H25Cl2F3N4O2

> <Exact Mass>
564.13

> <XLogP>
4.4

> <TPSA_NOPS>
81.8

> <s_m_source_file>
ligprep_h3d.sdf

> <i_m_source_file_index>
4995

> <i_lp_mmshare_version>
55123

> <i_f3d_flags>
0

> <s_epik_input>
W2NIXTFjKENsKWMoW09IXSljKENsKVtjSF1jMVtDQEBIXShbTkgyXSlDKD1PKU4oW0NIMl0yKVtDSDJdW0NASF0oW0NIMl1bTkhdYzNbY0hdW2NIXWMoRilbY0hdW2NIXTMpQzI0W0NIMl1OKFtDSDJdNCljNVtjSF1jKEYpW2NIXWMoRilbY0hdNQ==

> <s_epik_cmdline>
J2VwaWtfcHl0aG9uJywgJy1waHQnLCAnMC41JywgJy1waCcsICc3LjUnLCAnLXRuJywgJzgnLCAnLW1hJywgJzUwMCcsICctaW1hZScsICc8aW5maWxlLm1hZT4nLCAnLW9tYWUnLCAnPG91dGZpbGUubWFlPic=

> <r_lp_tautomer_probability>
1

> <r_epik_Ionization_Penalty>
0.208855

> <r_epik_Ionization_Penalty_Charging>
0.166629

> <r_epik_Ionization_Penalty_Neutral>
0.0422254

> <r_epik_State_Penalty>
-0

> <r_epik_Charging_Adjusted_Penalty>
0.166629

> <i_epik_Tot_Q>
-1

> <i_epik_Tot_abs_Q>
1

> <s_lp_Force_Field>
S-OPLS

> <r_lp_Energy>
47.4345

> <b_lp_Chiralities_Consistent>
1

> <s_lp_Variant>
ligprep_h3d.sdf:4995-1

> <ROCS_ShapeQuery>
_7L13

> <ROCS_TanimotoCombo>
0.697 

> <ROCS_ShapeTanimoto>
0.644 

> <ROCS_ColorTanimoto>
0.053 

> <ROCS_RefTversky>
0.796 

> <ROCS_RefColorTversky>
0.111 

> <ROCS_RefTverskyCombo>
0.908 

> <ROCS_FitTversky>
0.771 

> <ROCS_FitColorTversky>
0.093 

> <ROCS_FitTverskyCombo>
0.863 

> <ROCS_ColorScore>
-1.012

> <ROCS_Overlap>
1324.976

> <ROCS_Rank>
232                 

$$$$
ligprep_h3d.sdf:5336_574
  -OEChem-08212117123D

 68 73  0     0  0  0  0  0  0999 V2000
  -18.8261   -6.9499  -35.4415 C   0  0  0  0  0  0  0  0  0  0  0  0
  -19.9197   -7.7062  -35.0202 C   0  0  0  0  0  0  0  0  0  0  0  0
  -18.6197   -5.6722  -34.9212 C   0  0  0  0  0  0  0  0  0  0  0  0
  -20.8071   -7.1848  -34.0787 C   0  0  0  0  0  0  0  0  0  0  0  0
  -19.5070   -5.1509  -33.9797 C   0  0  0  0  0  0  0  0  0  0  0  0
  -23.0480   -3.8401  -28.8145 C   0  0  0  0  0  0  0  0  0  0  0  0
  -20.4161   -4.6829  -29.3579 C   0  0  0  0  0  0  0  0  0  0  0  0
  -14.5271   -5.6703  -25.6866 C   0  0  0  0  0  0  0  0  0  0  0  0
  -15.0408   -6.7305  -26.3954 C   0  0  0  0  0  0  0  0  0  0  0  0
  -22.1730   -4.1618  -27.7839 C   0  0  0  0  0  0  0  0  0  0  0  0
  -20.6007   -5.9072  -33.5584 C   0  0  0  0  0  0  0  0  0  0  0  0
  -20.8623   -4.5799  -28.0453 C   0  0  0  0  0  0  0  0  0  0  0  0
  -22.5959   -3.9355  -30.1300 C   0  0  0  0  0  0  0  0  0  0  0  0
  -21.2882   -4.3555  -30.4000 C   0  0  0  0  0  0  0  0  0  0  0  0
  -16.5818   -5.1812  -26.0146 C   0  0  0  0  0  0  0  0  0  0  0  0
  -17.8994   -4.6445  -26.1072 C   0  0  0  0  0  0  0  0  0  0  0  0
  -18.5830   -6.6257  -27.3510 C   0  0  0  0  0  0  0  0  0  0  0  0
  -17.3447   -7.1379  -27.2689 C   0  0  0  0  0  0  0  0  0  0  0  0
  -18.8816   -5.3225  -26.7468 C   0  0  0  0  0  0  0  0  0  0  0  0
  -23.3797   -2.8975  -24.3028 C   0  0  0  0  0  0  0  0  0  0  0  0
  -23.7689   -5.3945  -24.4635 C   0  0  0  0  0  0  0  0  0  0  0  0
  -23.0301   -2.8510  -25.7913 C   0  0  0  0  0  0  0  0  0  0  0  0
  -23.3784   -5.3614  -25.9440 C   0  0  0  0  0  0  0  0  0  0  0  0
  -20.9954   -4.4139  -25.7477 C   0  0  0  0  0  0  0  0  0  0  0  0
  -24.3343   -4.0514  -24.0120 C   0  0  0  0  0  0  0  0  0  0  0  0
  -22.4413   -4.1836  -26.2971 C   0  0  0  0  0  0  0  0  0  0  0  0
  -25.5365   -5.1761  -22.1336 C   0  0  0  0  0  0  0  0  0  0  0  0
  -23.4496   -2.2671  -31.5940 C   0  0  0  0  0  0  0  0  0  0  0  0
  -21.5550   -5.3456  -32.5457 C   0  0  0  0  0  0  0  0  0  0  0  0
  -15.4841   -4.7154  -25.4541 N   0  0  0  0  0  0  0  0  0  0  0  0
  -16.3591   -6.4181  -26.6063 N   0  0  0  0  0  0  0  0  0  0  0  0
  -20.1491   -4.8562  -26.8627 N   0  0  0  0  0  0  0  0  0  0  0  0
  -24.5914   -4.1058  -22.5482 N   0  3  0  0  0  0  0  0  0  0  0  0
  -23.4432   -3.6223  -31.1507 O   0  0  0  0  0  0  0  0  0  0  0  0
  -20.8502   -4.4514  -31.6880 O   0  0  0  0  0  0  0  0  0  0  0  0
  -18.1345   -7.3565  -36.1736 H   0  0  0  0  0  0  0  0  0  0  0  0
  -20.0800   -8.7015  -35.4244 H   0  0  0  0  0  0  0  0  0  0  0  0
  -17.7677   -5.0836  -35.2481 H   0  0  0  0  0  0  0  0  0  0  0  0
  -21.6566   -7.7812  -33.7564 H   0  0  0  0  0  0  0  0  0  0  0  0
  -19.3383   -4.1544  -33.5799 H   0  0  0  0  0  0  0  0  0  0  0  0
  -24.0668   -3.5307  -28.6041 H   0  0  0  0  0  0  0  0  0  0  0  0
  -19.4054   -5.0059  -29.5872 H   0  0  0  0  0  0  0  0  0  0  0  0
  -13.5144   -5.5468  -25.3318 H   0  0  0  0  0  0  0  0  0  0  0  0
  -14.5981   -7.6487  -26.7565 H   0  0  0  0  0  0  0  0  0  0  0  0
  -18.0943   -3.6788  -25.6510 H   0  0  0  0  0  0  0  0  0  0  0  0
  -19.3718   -7.1665  -27.8629 H   0  0  0  0  0  0  0  0  0  0  0  0
  -17.0752   -8.0949  -27.6989 H   0  0  0  0  0  0  0  0  0  0  0  0
  -22.4604   -3.0014  -23.7131 H   0  0  0  0  0  0  0  0  0  0  0  0
  -23.8397   -1.9451  -24.0128 H   0  0  0  0  0  0  0  0  0  0  0  0
  -24.5116   -6.1865  -24.3078 H   0  0  0  0  0  0  0  0  0  0  0  0
  -22.8941   -5.6620  -23.8588 H   0  0  0  0  0  0  0  0  0  0  0  0
  -23.9430   -2.6064  -26.3502 H   0  0  0  0  0  0  0  0  0  0  0  0
  -22.3328   -2.0239  -25.9769 H   0  0  0  0  0  0  0  0  0  0  0  0
  -22.9162   -6.3195  -26.2158 H   0  0  0  0  0  0  0  0  0  0  0  0
  -24.2996   -5.2907  -26.5384 H   0  0  0  0  0  0  0  0  0  0  0  0
  -20.5760   -3.4803  -25.3494 H   0  0  0  0  0  0  0  0  0  0  0  0
  -20.9724   -5.1481  -24.9349 H   0  0  0  0  0  0  0  0  0  0  0  0
  -25.3067   -3.8698  -24.4841 H   0  0  0  0  0  0  0  0  0  0  0  0
  -26.4745   -5.0193  -22.6694 H   0  0  0  0  0  0  0  0  0  0  0  0
  -25.0898   -6.1368  -22.3970 H   0  0  0  0  0  0  0  0  0  0  0  0
  -25.6823   -5.0936  -21.0548 H   0  0  0  0  0  0  0  0  0  0  0  0
  -24.1675   -2.1532  -32.4100 H   0  0  0  0  0  0  0  0  0  0  0  0
  -22.4486   -1.9892  -31.9337 H   0  0  0  0  0  0  0  0  0  0  0  0
  -23.7419   -1.6222  -30.7619 H   0  0  0  0  0  0  0  0  0  0  0  0
  -22.3708   -4.8026  -33.0351 H   0  0  0  0  0  0  0  0  0  0  0  0
  -21.9975   -6.1468  -31.9440 H   0  0  0  0  0  0  0  0  0  0  0  0
  -23.6981   -4.2348  -22.0538 H   0  0  0  0  0  0  0  0  0  0  0  0
  -24.9553   -3.1950  -22.2361 H   0  0  0  0  0  0  0  0  0  0  0  0
  1  2  2  0  0  0  0
  1  3  1  0  0  0  0
  2  4  1  0  0  0  0
  3  5  2  0  0  0  0
  4 11  2  0  0  0  0
  5 11  1  0  0  0  0
  6 10  2  0  0  0  0
  6 13  1  0  0  0  0
  7 12  2  0  0  0  0
  7 14  1  0  0  0  0
  8  9  2  0  0  0  0
  8 30  1  0  0  0  0
  9 31  1  0  0  0  0
 10 12  1  0  0  0  0
 10 26  1  0  0  0  0
 11 29  1  0  0  0  0
 12 32  1  0  0  0  0
 13 14  2  0  0  0  0
 13 34  1  0  0  0  0
 14 35  1  0  0  0  0
 15 16  1  0  0  0  0
 15 30  2  0  0  0  0
 15 31  1  0  0  0  0
 16 19  2  0  0  0  0
 17 18  2  0  0  0  0
 17 19  1  0  0  0  0
 18 31  1  0  0  0  0
 19 32  1  0  0  0  0
 20 22  1  0  0  0  0
 20 25  1  0  0  0  0
 21 23  1  0  0  0  0
 21 25  1  0  0  0  0
 22 26  1  0  0  0  0
 23 26  1  0  0  0  0
 24 26  1  0  0  0  0
 24 32  1  0  0  0  0
 25 33  1  0  0  0  0
 27 33  1  0  0  0  0
 28 34  1  0  0  0  0
 29 35  1  0  0  0  0
  1 36  1  0  0  0  0
  2 37  1  0  0  0  0
  3 38  1  0  0  0  0
  4 39  1  0  0  0  0
  5 40  1  0  0  0  0
  6 41  1  0  0  0  0
  7 42  1  0  0  0  0
  8 43  1  0  0  0  0
  9 44  1  0  0  0  0
 16 45  1  0  0  0  0
 17 46  1  0  0  0  0
 18 47  1  0  0  0  0
 20 48  1  0  0  0  0
 20 49  1  0  0  0  0
 21 50  1  0  0  0  0
 21 51  1  0  0  0  0
 22 52  1  0  0  0  0
 22 53  1  0  0  0  0
 23 54  1  0  0  0  0
 23 55  1  0  0  0  0
 24 56  1  0  0  0  0
 24 57  1  0  0  0  0
 25 58  1  0  0  0  0
 27 59  1  0  0  0  0
 27 60  1  0  0  0  0
 27 61  1  0  0  0  0
 28 62  1  0  0  0  0
 28 63  1  0  0  0  0
 28 64  1  0  0  0  0
 29 65  1  0  0  0  0
 29 66  1  0  0  0  0
 33 67  1  0  0  0  0
 33 68  1  0  0  0  0
M  CHG  1  33   1
M  END
> <SMILES>
CNC1CCC2(CC1)CN(c1ccn3ccnc3c1)c1cc(c(cc12)OC)OCc1ccccc1

> <FORMATTED_ID>
H3D-014949

> <MOLFORMULA>
C29H32N4O2

> <Exact Mass>
468.25

> <XLogP>
6.74

> <TPSA_NOPS>
51

> <s_m_source_file>
ligprep_h3d.sdf

> <i_m_source_file_index>
5336

> <i_lp_mmshare_version>
55123

> <i_f3d_flags>
0

> <s_epik_input>
W0NIM11bTkhdW0NAQEhdKFtDSDJdW0NIMl0xKVtDSDJdW0NIMl1bQ0BAXTEyYzNjKE4oW0NIMl0yKWMoW2NIXVtjSF00KVtjSF1jKG40NSluW2NIXVtjSF01KVtjSF1jKGMoW2NIXTMpT1tDSDNdKU9bQ0gyXWM2W2NIXVtjSF1bY0hdW2NIXVtjSF02

> <s_epik_cmdline>
J2VwaWtfcHl0aG9uJywgJy1waHQnLCAnMC41JywgJy1waCcsICc3LjUnLCAnLXRuJywgJzgnLCAnLW1hJywgJzUwMCcsICctaW1hZScsICc8aW5maWxlLm1hZT4nLCAnLW9tYWUnLCAnPG91dGZpbGUubWFlPic=

> <r_lp_tautomer_probability>
1

> <r_epik_Ionization_Penalty>
0.496992

> <r_epik_Ionization_Penalty_Charging>
0.496992

> <r_epik_Ionization_Penalty_Neutral>
3.70423e-09

> <r_epik_State_Penalty>
0.502526

> <r_epik_Charging_Adjusted_Penalty>
0.999518

> <i_epik_Tot_Q>
1

> <i_epik_Tot_abs_Q>
1

> <s_lp_Force_Field>
S-OPLS

> <r_lp_Energy>
72.6891

> <b_lp_Chiralities_Consistent>
1

> <s_lp_Variant>
ligprep_h3d.sdf:5336-2

> <ROCS_ShapeQuery>
_7L13

> <ROCS_TanimotoCombo>
0.785 

> <ROCS_ShapeTanimoto>
0.672 

> <ROCS_ColorTanimoto>
0.113 

> <ROCS_RefTversky>
0.796 

> <ROCS_RefColorTversky>
0.223 

> <ROCS_RefTverskyCombo>
1.020 

> <ROCS_FitTversky>
0.812 

> <ROCS_FitColorTversky>
0.186 

> <ROCS_FitTverskyCombo>
0.997 

> <ROCS_ColorScore>
-2.033

> <ROCS_Overlap>
1321.100

> <ROCS_Rank>
233                 

$$$$
ligprep_h3d.sdf:1483_1388
  -OEChem-08212117123D

 65 69  0     1  0  0  0  0  0999 V2000
  -20.4629   -3.8301  -31.6093 C   0  0  0  0  0  0  0  0  0  0  0  0
  -21.2983   -6.0927  -31.4684 C   0  0  0  0  0  0  0  0  0  0  0  0
  -19.9953   -4.0830  -32.8989 C   0  0  0  0  0  0  0  0  0  0  0  0
  -20.8307   -6.3456  -32.7580 C   0  0  0  0  0  0  0  0  0  0  0  0
  -17.4306   -6.5523  -26.0567 C   0  0  0  0  0  0  0  0  0  0  0  0
  -23.3687   -3.8296  -28.0838 C   0  0  0  0  0  0  0  0  0  0  0  0
  -20.9873   -4.5019  -24.7451 C   0  0  0  0  0  0  0  0  0  0  0  0
  -19.2591   -6.8338  -35.3146 C   0  0  0  0  0  0  0  0  0  0  0  0
  -17.0862   -5.1895  -26.1338 C   0  0  0  0  0  0  0  0  0  0  0  0
  -21.2749   -4.5441  -27.1452 C   0  0  0  0  0  0  0  0  0  0  0  0
  -21.1143   -4.8350  -30.8940 C   0  0  0  0  0  0  0  0  0  0  0  0
  -20.1792   -5.3408  -33.4732 C   0  0  0  0  0  0  0  0  0  0  0  0
  -21.6017   -4.5723  -29.5501 C   0  0  0  0  0  0  0  0  0  0  0  0
  -22.8906   -4.0856  -29.3714 C   0  0  0  0  0  0  0  0  0  0  0  0
  -20.7938   -4.8017  -28.4401 C   0  0  0  0  0  0  0  0  0  0  0  0
  -22.5826   -4.0501  -26.9562 C   0  0  0  0  0  0  0  0  0  0  0  0
  -20.4831   -4.7660  -26.0104 C   0  0  0  0  0  0  0  0  0  0  0  0
  -19.6982   -5.6013  -34.8009 C   0  0  0  0  0  0  0  0  0  0  0  0
  -22.2780   -4.0206  -24.6602 C   0  0  0  0  0  0  0  0  0  0  0  0
  -18.9136   -6.5432  -36.6077 C   0  0  0  0  0  0  0  0  0  0  0  0
  -18.8029   -6.5568  -25.9986 C   0  0  0  0  0  0  0  0  0  0  0  0
  -22.8673   -3.7249  -23.3656 C   0  0  0  0  0  0  0  0  0  0  0  0
  -18.3663   -7.5396  -37.6292 C   0  0  0  0  0  0  0  0  0  0  0  0
  -23.7999   -3.8203  -30.5292 C   0  0  0  0  0  0  0  0  0  0  0  0
  -19.4122   -5.3281  -28.7112 C   0  0  0  0  0  0  0  0  0  0  0  0
  -19.7560   -7.6803  -25.9070 C   0  0  0  0  0  0  0  0  0  0  0  0
  -27.0325   -2.9776  -23.3693 C   0  0  0  0  0  0  0  0  0  0  0  0
  -24.9899   -3.5939  -22.0358 C   0  0  0  0  0  0  0  0  0  0  0  0
  -26.4769   -3.8582  -22.2581 C   0  0  2  0  0  0  0  0  0  0  0  0
  -18.1536   -4.3866  -26.1259 N   0  0  0  0  0  0  0  0  0  0  0  0
  -23.0746   -3.7928  -25.7295 N   0  0  0  0  0  0  0  0  0  0  0  0
  -19.6303   -4.6213  -35.7063 N   0  0  0  0  0  0  0  0  0  0  0  0
  -19.1822   -5.2475  -26.0432 N   0  0  0  0  0  0  0  0  0  0  0  0
  -24.2551   -3.8716  -23.2490 N   0  0  0  0  0  0  0  0  0  0  0  0
  -18.1046   -7.0839  -38.7762 O   0  5  0  0  0  0  0  0  0  0  0  0
  -22.1561   -3.3394  -22.4198 O   0  0  0  0  0  0  0  0  0  0  0  0
  -18.2250   -8.7298  -37.2353 O   0  0  0  0  0  0  0  0  0  0  0  0
  -19.1306   -5.2258  -36.8535 O   0  0  0  0  0  0  0  0  0  0  0  0
  -26.6462   -5.2244  -22.6313 O   0  0  0  0  0  0  0  0  0  0  0  0
  -20.3122   -2.8447  -31.1748 H   0  0  0  0  0  0  0  0  0  0  0  0
  -21.8041   -6.8863  -30.9236 H   0  0  0  0  0  0  0  0  0  0  0  0
  -19.4893   -3.2893  -33.4435 H   0  0  0  0  0  0  0  0  0  0  0  0
  -20.9818   -7.3314  -33.1916 H   0  0  0  0  0  0  0  0  0  0  0  0
  -16.7740   -7.4099  -26.0453 H   0  0  0  0  0  0  0  0  0  0  0  0
  -24.3815   -3.4482  -27.9586 H   0  0  0  0  0  0  0  0  0  0  0  0
  -20.3948   -4.6651  -23.8491 H   0  0  0  0  0  0  0  0  0  0  0  0
  -19.2008   -7.7933  -34.8207 H   0  0  0  0  0  0  0  0  0  0  0  0
  -16.1018   -4.7481  -26.1956 H   0  0  0  0  0  0  0  0  0  0  0  0
  -23.6731   -2.7906  -30.8805 H   0  0  0  0  0  0  0  0  0  0  0  0
  -23.5896   -4.5036  -31.3600 H   0  0  0  0  0  0  0  0  0  0  0  0
  -24.8490   -3.9694  -30.2484 H   0  0  0  0  0  0  0  0  0  0  0  0
  -19.4272   -6.4208  -28.7184 H   0  0  0  0  0  0  0  0  0  0  0  0
  -19.0441   -4.9693  -29.6764 H   0  0  0  0  0  0  0  0  0  0  0  0
  -18.7106   -4.9852  -27.9455 H   0  0  0  0  0  0  0  0  0  0  0  0
  -19.9692   -7.9356  -24.8561 H   0  0  0  0  0  0  0  0  0  0  0  0
  -20.7169   -7.4487  -26.3973 H   0  0  0  0  0  0  0  0  0  0  0  0
  -19.3728   -8.5892  -26.4018 H   0  0  0  0  0  0  0  0  0  0  0  0
  -26.4872   -3.1276  -24.3061 H   0  0  0  0  0  0  0  0  0  0  0  0
  -28.0940   -3.1870  -23.5420 H   0  0  0  0  0  0  0  0  0  0  0  0
  -26.9618   -1.9202  -23.0920 H   0  0  0  0  0  0  0  0  0  0  0  0
  -24.8182   -2.5491  -21.7552 H   0  0  0  0  0  0  0  0  0  0  0  0
  -24.5985   -4.2327  -21.2374 H   0  0  0  0  0  0  0  0  0  0  0  0
  -27.0402   -3.6882  -21.3332 H   0  0  0  0  0  0  0  0  0  0  0  0
  -24.7965   -4.1279  -24.0681 H   0  0  0  0  0  0  0  0  0  0  0  0
  -27.5989   -5.3619  -22.7470 H   0  0  0  0  0  0  0  0  0  0  0  0
  1  3  1  0  0  0  0
  1 11  2  0  0  0  0
  2  4  2  0  0  0  0
  2 11  1  0  0  0  0
  3 12  2  0  0  0  0
  4 12  1  0  0  0  0
  5  9  1  0  0  0  0
  5 21  2  0  0  0  0
  6 14  2  0  0  0  0
  6 16  1  0  0  0  0
  7 17  1  0  0  0  0
  7 19  2  0  0  0  0
  8 18  1  0  0  0  0
  8 20  2  0  0  0  0
  9 30  2  0  0  0  0
 10 15  1  0  0  0  0
 10 16  1  0  0  0  0
 10 17  2  0  0  0  0
 11 13  1  0  0  0  0
 12 18  1  0  0  0  0
 13 14  1  0  0  0  0
 13 15  2  0  0  0  0
 14 24  1  0  0  0  0
 15 25  1  0  0  0  0
 16 31  2  0  0  0  0
 17 33  1  0  0  0  0
 18 32  2  0  0  0  0
 19 22  1  0  0  0  0
 19 31  1  0  0  0  0
 20 23  1  0  0  0  0
 20 38  1  0  0  0  0
 21 26  1  0  0  0  0
 21 33  1  0  0  0  0
 22 34  1  0  0  0  0
 22 36  2  0  0  0  0
 23 35  1  0  0  0  0
 23 37  2  0  0  0  0
 27 29  1  0  0  0  0
 28 29  1  0  0  0  0
 28 34  1  0  0  0  0
 29 39  1  0  0  0  0
 30 33  1  0  0  0  0
 32 38  1  0  0  0  0
  1 40  1  0  0  0  0
  2 41  1  0  0  0  0
  3 42  1  0  0  0  0
  4 43  1  0  0  0  0
  5 44  1  0  0  0  0
  6 45  1  0  0  0  0
  7 46  1  0  0  0  0
  8 47  1  0  0  0  0
  9 48  1  0  0  0  0
 24 49  1  0  0  0  0
 24 50  1  0  0  0  0
 24 51  1  0  0  0  0
 25 52  1  0  0  0  0
 25 53  1  0  0  0  0
 25 54  1  0  0  0  0
 26 55  1  0  0  0  0
 26 56  1  0  0  0  0
 26 57  1  0  0  0  0
 27 58  1  0  0  0  0
 27 59  1  0  0  0  0
 27 60  1  0  0  0  0
 28 61  1  0  0  0  0
 28 62  1  0  0  0  0
 29 63  1  0  0  0  0
 34 64  1  0  0  0  0
 39 65  1  0  0  0  0
M  CHG  1  35  -1
M  END
> <SMILES>
C[C@@H](O)CNC(=O)c1cc(c2c(c(c(cc2n1)C)-c1ccc(cc1)-c1cc(on1)C(=O)O)C)-n1nccc1C

> <FORMATTED_ID>
H3D-012730

> <MOLFORMULA>
C29H27N5O5

> <Exact Mass>
525.2

> <XLogP>
3.03

> <TPSA_NOPS>
143.7

> <s_m_source_file>
ligprep_h3d.sdf

> <i_m_source_file_index>
1483

> <i_lp_mmshare_version>
55123

> <i_f3d_flags>
0

> <s_epik_input>
W0NIM11jMVtjSF1bY0hdbm4xLWMyW2NIXWMoQyg9TylbTkhdW0NIMl1bQ0BASF0oW0NIM10pW09IXSluYyhjMjMpW2NIXWMoW0NIM10pYyhjM1tDSDNdKS1jNFtjSF1bY0hdYyhbY0hdW2NIXTQpLWM1W2NIXWMob241KUMoPU8pW09IXQ==

> <s_epik_cmdline>
J2VwaWtfcHl0aG9uJywgJy1waHQnLCAnMC41JywgJy1waCcsICc3LjUnLCAnLXRuJywgJzgnLCAnLW1hJywgJzUwMCcsICctaW1hZScsICc8aW5maWxlLm1hZT4nLCAnLW9tYWUnLCAnPG91dGZpbGUubWFlPic=

> <r_lp_tautomer_probability>
1

> <r_epik_Ionization_Penalty>
1.65084e-05

> <r_epik_Ionization_Penalty_Charging>
2.27341e-07

> <r_epik_Ionization_Penalty_Neutral>
1.62811e-05

> <r_epik_State_Penalty>
-0

> <r_epik_Charging_Adjusted_Penalty>
2.27341e-07

> <i_epik_Tot_Q>
-1

> <i_epik_Tot_abs_Q>
1

> <s_lp_Force_Field>
S-OPLS

> <r_lp_Energy>
60.2426

> <b_lp_Chiralities_Consistent>
1

> <s_lp_Variant>
ligprep_h3d.sdf:1483-1

> <ROCS_ShapeQuery>
_7L13

> <ROCS_TanimotoCombo>
0.729 

> <ROCS_ShapeTanimoto>
0.616 

> <ROCS_ColorTanimoto>
0.113 

> <ROCS_RefTversky>
0.796 

> <ROCS_RefColorTversky>
0.262 

> <ROCS_RefTverskyCombo>
1.058 

> <ROCS_FitTversky>
0.731 

> <ROCS_FitColorTversky>
0.166 

> <ROCS_FitTverskyCombo>
0.896 

> <ROCS_ColorScore>
-2.438

> <ROCS_Overlap>
1329.039

> <ROCS_Rank>
234                 

$$$$
ligprep_h3d.sdf:5934_1278
  -OEChem-08212117123D

 65 69  0     0  0  0  0  0  0999 V2000
  -17.9106   -3.8652  -25.3923 C   0  0  0  0  0  0  0  0  0  0  0  0
  -18.7391   -6.1593  -36.4215 C   0  0  0  0  0  0  0  0  0  0  0  0
  -17.8319   -5.1277  -25.9799 C   0  0  0  0  0  0  0  0  0  0  0  0
  -18.8291   -2.9299  -25.8691 C   0  0  0  0  0  0  0  0  0  0  0  0
  -18.9034   -7.5160  -36.7009 C   0  0  0  0  0  0  0  0  0  0  0  0
  -19.3137   -5.6086  -35.2760 C   0  0  0  0  0  0  0  0  0  0  0  0
  -24.2192   -3.4825  -25.8344 C   0  0  0  0  0  0  0  0  0  0  0  0
  -23.3282   -5.7110  -25.5567 C   0  0  0  0  0  0  0  0  0  0  0  0
  -18.6718   -5.4551  -27.0444 C   0  0  0  0  0  0  0  0  0  0  0  0
  -19.6689   -3.2572  -26.9336 C   0  0  0  0  0  0  0  0  0  0  0  0
  -23.4340   -3.3106  -26.9744 C   0  0  0  0  0  0  0  0  0  0  0  0
  -22.5430   -5.5391  -26.6967 C   0  0  0  0  0  0  0  0  0  0  0  0
  -19.6425   -8.3219  -35.8348 C   0  0  0  0  0  0  0  0  0  0  0  0
  -26.2254   -4.3231  -23.5946 C   0  0  0  0  0  0  0  0  0  0  0  0
  -21.4182   -6.4210  -32.2144 C   0  0  0  0  0  0  0  0  0  0  0  0
  -24.6250   -5.6547  -22.8870 C   0  0  0  0  0  0  0  0  0  0  0  0
  -20.5302   -4.5234  -32.8817 C   0  0  0  0  0  0  0  0  0  0  0  0
  -24.1662   -4.6827  -25.1256 C   0  0  0  0  0  0  0  0  0  0  0  0
  -20.0527   -6.4145  -34.4099 C   0  0  0  0  0  0  0  0  0  0  0  0
  -24.9738   -4.8598  -23.9514 C   0  0  0  0  0  0  0  0  0  0  0  0
  -20.6398   -5.8457  -33.2365 C   0  0  0  0  0  0  0  0  0  0  0  0
  -19.5903   -4.5198  -27.5213 C   0  0  0  0  0  0  0  0  0  0  0  0
  -22.5959   -4.3389  -27.4056 C   0  0  0  0  0  0  0  0  0  0  0  0
  -20.2171   -7.7711  -34.6893 C   0  0  0  0  0  0  0  0  0  0  0  0
  -22.2573   -3.3133  -29.6130 C   0  0  0  0  0  0  0  0  0  0  0  0
  -22.1776   -2.1292  -31.8380 C   0  0  0  0  0  0  0  0  0  0  0  0
  -20.1028   -2.3586  -30.5170 C   0  0  0  0  0  0  0  0  0  0  0  0
  -25.7379   -6.2090  -20.7112 C   0  0  0  0  0  0  0  0  0  0  0  0
  -20.4944   -4.8714  -28.6672 C   0  0  0  0  0  0  0  0  0  0  0  0
  -21.4040   -3.1024  -30.9027 C   0  0  0  0  0  0  0  0  0  0  0  0
  -26.6436   -4.7419  -22.3972 N   0  0  0  0  0  0  0  0  0  0  0  0
  -21.7776   -5.5367  -31.2802 N   0  0  0  0  0  0  0  0  0  0  0  0
  -25.6491   -5.5502  -21.9924 N   0  0  0  0  0  0  0  0  0  0  0  0
  -21.2224   -4.3922  -31.7139 N   0  0  0  0  0  0  0  0  0  0  0  0
  -21.7774   -4.1601  -28.5934 N   0  0  0  0  0  0  0  0  0  0  0  0
  -23.3447   -2.7257  -29.5229 O   0  0  0  0  0  0  0  0  0  0  0  0
  -20.9248   -8.5594  -33.8669 F   0  0  0  0  0  0  0  0  0  0  0  0
  -17.2575   -3.6109  -24.5625 H   0  0  0  0  0  0  0  0  0  0  0  0
  -18.1635   -5.5319  -37.0959 H   0  0  0  0  0  0  0  0  0  0  0  0
  -17.1176   -5.8565  -25.6081 H   0  0  0  0  0  0  0  0  0  0  0  0
  -18.8913   -1.9472  -25.4111 H   0  0  0  0  0  0  0  0  0  0  0  0
  -18.4557   -7.9448  -37.5926 H   0  0  0  0  0  0  0  0  0  0  0  0
  -19.1755   -4.5493  -35.0721 H   0  0  0  0  0  0  0  0  0  0  0  0
  -24.8671   -2.6714  -25.5107 H   0  0  0  0  0  0  0  0  0  0  0  0
  -23.2753   -6.6524  -25.0148 H   0  0  0  0  0  0  0  0  0  0  0  0
  -18.6033   -6.4412  -27.4963 H   0  0  0  0  0  0  0  0  0  0  0  0
  -20.3814   -2.5222  -27.2986 H   0  0  0  0  0  0  0  0  0  0  0  0
  -23.4825   -2.3709  -27.5188 H   0  0  0  0  0  0  0  0  0  0  0  0
  -21.8936   -6.3477  -27.0226 H   0  0  0  0  0  0  0  0  0  0  0  0
  -19.7707   -9.3779  -36.0525 H   0  0  0  0  0  0  0  0  0  0  0  0
  -26.8532   -3.6443  -24.1547 H   0  0  0  0  0  0  0  0  0  0  0  0
  -21.7404   -7.4475  -32.1079 H   0  0  0  0  0  0  0  0  0  0  0  0
  -23.7582   -6.2721  -22.6913 H   0  0  0  0  0  0  0  0  0  0  0  0
  -20.0318   -3.6827  -33.3461 H   0  0  0  0  0  0  0  0  0  0  0  0
  -21.6252   -1.9407  -32.7668 H   0  0  0  0  0  0  0  0  0  0  0  0
  -23.1608   -2.5248  -32.1216 H   0  0  0  0  0  0  0  0  0  0  0  0
  -22.3468   -1.1617  -31.3496 H   0  0  0  0  0  0  0  0  0  0  0  0
  -19.4624   -2.1833  -31.3897 H   0  0  0  0  0  0  0  0  0  0  0  0
  -19.4973   -2.9007  -29.7859 H   0  0  0  0  0  0  0  0  0  0  0  0
  -20.3295   -1.3774  -30.0823 H   0  0  0  0  0  0  0  0  0  0  0  0
  -25.2840   -5.5539  -19.9629 H   0  0  0  0  0  0  0  0  0  0  0  0
  -26.7880   -6.3954  -20.4695 H   0  0  0  0  0  0  0  0  0  0  0  0
  -25.2063   -7.1635  -20.7580 H   0  0  0  0  0  0  0  0  0  0  0  0
  -20.0227   -4.6179  -29.6230 H   0  0  0  0  0  0  0  0  0  0  0  0
  -20.7075   -5.9454  -28.6845 H   0  0  0  0  0  0  0  0  0  0  0  0
  1  3  2  0  0  0  0
  1  4  1  0  0  0  0
  2  5  2  0  0  0  0
  2  6  1  0  0  0  0
  3  9  1  0  0  0  0
  4 10  2  0  0  0  0
  5 13  1  0  0  0  0
  6 19  2  0  0  0  0
  7 11  1  0  0  0  0
  7 18  2  0  0  0  0
  8 12  2  0  0  0  0
  8 18  1  0  0  0  0
  9 22  2  0  0  0  0
 10 22  1  0  0  0  0
 11 23  2  0  0  0  0
 12 23  1  0  0  0  0
 13 24  2  0  0  0  0
 14 20  1  0  0  0  0
 14 31  2  0  0  0  0
 15 21  1  0  0  0  0
 15 32  2  0  0  0  0
 16 20  2  0  0  0  0
 16 33  1  0  0  0  0
 17 21  2  0  0  0  0
 17 34  1  0  0  0  0
 18 20  1  0  0  0  0
 19 21  1  0  0  0  0
 19 24  1  0  0  0  0
 22 29  1  0  0  0  0
 23 35  1  0  0  0  0
 24 37  1  0  0  0  0
 25 30  1  0  0  0  0
 25 35  1  0  0  0  0
 25 36  2  0  0  0  0
 26 30  1  0  0  0  0
 27 30  1  0  0  0  0
 28 33  1  0  0  0  0
 29 35  1  0  0  0  0
 30 34  1  0  0  0  0
 31 33  1  0  0  0  0
 32 34  1  0  0  0  0
  1 38  1  0  0  0  0
  2 39  1  0  0  0  0
  3 40  1  0  0  0  0
  4 41  1  0  0  0  0
  5 42  1  0  0  0  0
  6 43  1  0  0  0  0
  7 44  1  0  0  0  0
  8 45  1  0  0  0  0
  9 46  1  0  0  0  0
 10 47  1  0  0  0  0
 11 48  1  0  0  0  0
 12 49  1  0  0  0  0
 13 50  1  0  0  0  0
 14 51  1  0  0  0  0
 15 52  1  0  0  0  0
 16 53  1  0  0  0  0
 17 54  1  0  0  0  0
 26 55  1  0  0  0  0
 26 56  1  0  0  0  0
 26 57  1  0  0  0  0
 27 58  1  0  0  0  0
 27 59  1  0  0  0  0
 27 60  1  0  0  0  0
 28 61  1  0  0  0  0
 28 62  1  0  0  0  0
 28 63  1  0  0  0  0
 29 64  1  0  0  0  0
 29 65  1  0  0  0  0
M  END
> <SMILES>
Cn1cc(cn1)-c1ccc(cc1)N(Cc1ccccc1)C(=O)C(C)(C)n1cc(cn1)-c1ccccc1F

> <FORMATTED_ID>
H3D-000240

> <MOLFORMULA>
C30H28FN5O

> <Exact Mass>
493.23

> <XLogP>
7.18

> <TPSA_NOPS>
55.9

> <s_m_source_file>
ligprep_h3d.sdf

> <i_m_source_file_index>
5934

> <i_lp_mmshare_version>
55123

> <i_f3d_flags>
0

> <s_epik_input>
W0NIM11uMVtjSF1jKFtjSF1uMSktYzJbY0hdW2NIXWMoW2NIXVtjSF0yKU4oW0NIMl1jM1tjSF1bY0hdW2NIXVtjSF1bY0hdMylDKD1PKUMoW0NIM10pKFtDSDNdKW40W2NIXWMoW2NIXW40KS1jNVtjSF1bY0hdW2NIXVtjSF1jNUY=

> <s_epik_cmdline>
J2VwaWtfcHl0aG9uJywgJy1waHQnLCAnMC41JywgJy1waCcsICc3LjUnLCAnLXRuJywgJzgnLCAnLW1hJywgJzUwMCcsICctaW1hZScsICc8aW5maWxlLm1hZT4nLCAnLW9tYWUnLCAnPG91dGZpbGUubWFlPic=

> <r_lp_tautomer_probability>
1

> <r_epik_Ionization_Penalty>
2.99479e-05

> <r_epik_Ionization_Penalty_Charging>
0

> <r_epik_Ionization_Penalty_Neutral>
2.99479e-05

> <r_epik_State_Penalty>
-0

> <r_epik_Charging_Adjusted_Penalty>
0

> <i_epik_Tot_Q>
0

> <i_epik_Tot_abs_Q>
0

> <s_lp_Force_Field>
S-OPLS

> <r_lp_Energy>
64.601

> <b_lp_Chiralities_Consistent>
1

> <s_lp_Variant>
ligprep_h3d.sdf:5934-1

> <ROCS_ShapeQuery>
_7L13

> <ROCS_TanimotoCombo>
0.708 

> <ROCS_ShapeTanimoto>
0.644 

> <ROCS_ColorTanimoto>
0.064 

> <ROCS_RefTversky>
0.796 

> <ROCS_RefColorTversky>
0.121 

> <ROCS_RefTverskyCombo>
0.916 

> <ROCS_FitTversky>
0.771 

> <ROCS_FitColorTversky>
0.121 

> <ROCS_FitTverskyCombo>
0.892 

> <ROCS_ColorScore>
-1.085

> <ROCS_Overlap>
1323.808

> <ROCS_Rank>
235                 

$$$$
ligprep_h3d.sdf:5016_1908
  -OEChem-08212117123D

 62 66  0     1  0  0  0  0  0999 V2000
  -23.2128   -4.5239  -24.0053 C   0  0  0  0  0  0  0  0  0  0  0  0
  -25.3279   -5.0370  -25.0542 C   0  0  0  0  0  0  0  0  0  0  0  0
  -23.8845   -4.0967  -22.8599 C   0  0  0  0  0  0  0  0  0  0  0  0
  -25.9996   -4.6099  -23.9088 C   0  0  0  0  0  0  0  0  0  0  0  0
  -20.0709   -4.2636  -33.6483 C   0  0  0  0  0  0  0  0  0  0  0  0
  -22.0250   -5.4611  -32.8839 C   0  0  0  0  0  0  0  0  0  0  0  0
  -16.7964   -5.6451  -26.3844 C   0  0  0  0  0  0  0  0  0  0  0  0
  -17.4723   -3.4567  -25.6157 C   0  0  0  0  0  0  0  0  0  0  0  0
  -15.5338   -4.5299  -24.6526 C   0  0  0  0  0  0  0  0  0  0  0  0
  -21.2975   -4.2752  -32.9844 C   0  0  0  0  0  0  0  0  0  0  0  0
  -17.6678   -4.5580  -26.4491 C   0  0  0  0  0  0  0  0  0  0  0  0
  -23.9345   -4.9940  -25.1025 C   0  0  0  0  0  0  0  0  0  0  0  0
  -20.2992   -6.6238  -34.1114 C   0  0  0  0  0  0  0  0  0  0  0  0
  -25.2778   -4.1397  -22.8116 C   0  0  0  0  0  0  0  0  0  0  0  0
  -15.7293   -5.6311  -25.4860 C   0  0  0  0  0  0  0  0  0  0  0  0
  -16.4052   -3.4427  -24.7174 C   0  0  0  0  0  0  0  0  0  0  0  0
  -19.5718   -5.4379  -34.2119 C   0  0  0  0  0  0  0  0  0  0  0  0
  -21.5258   -6.6354  -33.4473 C   0  0  0  0  0  0  0  0  0  0  0  0
  -22.6597   -3.2239  -31.1273 C   0  0  0  0  0  0  0  0  0  0  0  0
  -22.6742   -4.1151  -28.8134 C   0  0  0  0  0  0  0  0  0  0  0  0
  -19.1655   -5.5449  -28.3009 C   0  0  0  0  0  0  0  0  0  0  0  0
  -19.5774   -3.5294  -27.8421 C   0  0  0  0  0  0  0  0  0  0  0  0
  -20.6094   -4.2888  -30.0799 C   0  0  0  0  0  0  0  0  0  0  0  0
  -21.7451   -5.0777  -28.0860 C   0  0  1  0  0  0  0  0  0  0  0  0
  -20.3709   -4.6266  -28.6056 C   0  0  0  0  0  0  0  0  0  0  0  0
  -21.9246   -5.0605  -26.5794 C   0  0  0  0  0  0  0  0  0  0  0  0
  -21.8374   -3.0008  -32.3714 C   0  0  2  0  0  0  0  0  0  0  0  0
  -18.7398   -4.5714  -27.3522 N   0  0  0  0  0  0  0  0  0  0  0  0
  -22.0020   -3.8440  -30.0773 N   0  0  0  0  0  0  0  0  0  0  0  0
  -22.6477   -2.1991  -33.2673 N   0  0  0  0  0  0  0  0  0  0  0  0
  -23.2619   -5.4217  -26.2495 N   0  0  0  0  0  0  0  0  0  0  0  0
  -19.8391   -7.7059  -34.6311 O   0  5  0  0  0  0  0  0  0  0  0  0
  -23.8358   -2.8585  -31.0847 O   0  0  0  0  0  0  0  0  0  0  0  0
  -25.9229   -3.7295  -21.7116 F   0  0  0  0  0  0  0  0  0  0  0  0
  -14.8916   -6.6745  -25.4254 F   0  0  0  0  0  0  0  0  0  0  0  0
  -16.2163   -2.3843  -23.9184 F   0  0  0  0  0  0  0  0  0  0  0  0
  -17.8842   -5.3037  -35.0985 Br  0  0  0  0  0  0  0  0  0  0  0  0
  -22.6033   -8.2009  -33.2457 Br  0  0  0  0  0  0  0  0  0  0  0  0
  -22.1268   -4.4863  -24.0320 H   0  0  0  0  0  0  0  0  0  0  0  0
  -25.9002   -5.4012  -25.9035 H   0  0  0  0  0  0  0  0  0  0  0  0
  -23.3230   -3.7308  -22.0053 H   0  0  0  0  0  0  0  0  0  0  0  0
  -27.0844   -4.6429  -23.8707 H   0  0  0  0  0  0  0  0  0  0  0  0
  -19.5140   -3.3317  -33.7195 H   0  0  0  0  0  0  0  0  0  0  0  0
  -22.9795   -5.4571  -32.3621 H   0  0  0  0  0  0  0  0  0  0  0  0
  -16.9390   -6.5078  -27.0298 H   0  0  0  0  0  0  0  0  0  0  0  0
  -18.1448   -2.6039  -25.6586 H   0  0  0  0  0  0  0  0  0  0  0  0
  -14.7019   -4.5190  -23.9544 H   0  0  0  0  0  0  0  0  0  0  0  0
  -23.6249   -4.5981  -29.0581 H   0  0  0  0  0  0  0  0  0  0  0  0
  -22.8817   -3.1908  -28.2706 H   0  0  0  0  0  0  0  0  0  0  0  0
  -19.4016   -6.5070  -27.8269 H   0  0  0  0  0  0  0  0  0  0  0  0
  -18.4401   -5.7041  -29.1068 H   0  0  0  0  0  0  0  0  0  0  0  0
  -19.0453   -2.8015  -28.4569 H   0  0  0  0  0  0  0  0  0  0  0  0
  -20.1249   -3.0261  -27.0404 H   0  0  0  0  0  0  0  0  0  0  0  0
  -19.9902   -3.4486  -30.4116 H   0  0  0  0  0  0  0  0  0  0  0  0
  -20.4703   -5.1331  -30.7611 H   0  0  0  0  0  0  0  0  0  0  0  0
  -21.9710   -6.1319  -28.4432 H   0  0  0  0  0  0  0  0  0  0  0  0
  -21.2193   -5.7773  -26.1627 H   0  0  0  0  0  0  0  0  0  0  0  0
  -21.7050   -4.0497  -26.2403 H   0  0  0  0  0  0  0  0  0  0  0  0
  -20.9946   -2.3705  -32.0673 H   0  0  0  0  0  0  0  0  0  0  0  0
  -22.6946   -2.6542  -34.1519 H   0  0  0  0  0  0  0  0  0  0  0  0
  -23.5605   -2.1086  -32.8795 H   0  0  0  0  0  0  0  0  0  0  0  0
  -23.7823   -6.0339  -26.8833 H   0  0  0  0  0  0  0  0  0  0  0  0
  1  3  1  0  0  0  0
  1 12  2  0  0  0  0
  2  4  2  0  0  0  0
  2 12  1  0  0  0  0
  3 14  2  0  0  0  0
  4 14  1  0  0  0  0
  5 10  2  0  0  0  0
  5 17  1  0  0  0  0
  6 10  1  0  0  0  0
  6 18  2  0  0  0  0
  7 11  2  0  0  0  0
  7 15  1  0  0  0  0
  8 11  1  0  0  0  0
  8 16  2  0  0  0  0
  9 15  2  0  0  0  0
  9 16  1  0  0  0  0
 10 27  1  0  0  0  0
 11 28  1  0  0  0  0
 12 31  1  0  0  0  0
 13 17  2  0  0  0  0
 13 18  1  0  0  0  0
 13 32  1  0  0  0  0
 14 34  1  0  0  0  0
 15 35  1  0  0  0  0
 16 36  1  0  0  0  0
 17 37  1  0  0  0  0
 18 38  1  0  0  0  0
 19 27  1  0  0  0  0
 19 29  1  0  0  0  0
 19 33  2  0  0  0  0
 20 24  1  0  0  0  0
 20 29  1  0  0  0  0
 21 25  1  0  0  0  0
 21 28  1  0  0  0  0
 22 25  1  0  0  0  0
 22 28  1  0  0  0  0
 23 25  1  0  0  0  0
 23 29  1  0  0  0  0
 24 25  1  0  0  0  0
 24 26  1  0  0  0  0
 26 31  1  0  0  0  0
 27 30  1  0  0  0  0
  1 39  1  0  0  0  0
  2 40  1  0  0  0  0
  3 41  1  0  0  0  0
  4 42  1  0  0  0  0
  5 43  1  0  0  0  0
  6 44  1  0  0  0  0
  7 45  1  0  0  0  0
  8 46  1  0  0  0  0
  9 47  1  0  0  0  0
 20 48  1  0  0  0  0
 20 49  1  0  0  0  0
 21 50  1  0  0  0  0
 21 51  1  0  0  0  0
 22 52  1  0  0  0  0
 22 53  1  0  0  0  0
 23 54  1  0  0  0  0
 23 55  1  0  0  0  0
 24 56  1  0  0  0  0
 26 57  1  0  0  0  0
 26 58  1  0  0  0  0
 27 59  1  0  0  0  0
 30 60  1  0  0  0  0
 30 61  1  0  0  0  0
 31 62  1  0  0  0  0
M  CHG  1  32  -1
M  END
> <SMILES>
N[C@@H](C(=O)N1CC(CNc2ccc(cc2)F)C2(C1)CN(C2)c1cc(cc(c1)F)F)c1cc(c(c(c1)Br)O)Br

> <FORMATTED_ID>
H3D-009070

> <MOLFORMULA>
C27H25Br2F3N4O2

> <Exact Mass>
652.03

> <XLogP>
4.75

> <TPSA_NOPS>
81.8

> <s_m_source_file>
ligprep_h3d.sdf

> <i_m_source_file_index>
5016

> <i_lp_mmshare_version>
55123

> <i_f3d_flags>
0

> <s_epik_input>
W2NIXTFjKEJyKWMoW09IXSljKEJyKVtjSF1jMVtDQEBIXShbTkgyXSlDKD1PKU4oW0NIMl0yKVtDSDJdW0NASF0oW0NIMl1bTkhdYzNbY0hdW2NIXWMoRilbY0hdW2NIXTMpQzI0W0NIMl1OKFtDSDJdNCljNVtjSF1jKEYpW2NIXWMoRilbY0hdNQ==

> <s_epik_cmdline>
J2VwaWtfcHl0aG9uJywgJy1waHQnLCAnMC41JywgJy1waCcsICc3LjUnLCAnLXRuJywgJzgnLCAnLW1hJywgJzUwMCcsICctaW1hZScsICc8aW5maWxlLm1hZT4nLCAnLW9tYWUnLCAnPG91dGZpbGUubWFlPic=

> <r_lp_tautomer_probability>
1

> <r_epik_Ionization_Penalty>
0.20815

> <r_epik_Ionization_Penalty_Charging>
0.166629

> <r_epik_Ionization_Penalty_Neutral>
0.0415212

> <r_epik_State_Penalty>
-0

> <r_epik_Charging_Adjusted_Penalty>
0.166629

> <i_epik_Tot_Q>
-1

> <i_epik_Tot_abs_Q>
1

> <s_lp_Force_Field>
S-OPLS

> <r_lp_Energy>
44.4526

> <b_lp_Chiralities_Consistent>
1

> <s_lp_Variant>
ligprep_h3d.sdf:5016-1

> <ROCS_ShapeQuery>
_7L13

> <ROCS_TanimotoCombo>
0.693 

> <ROCS_ShapeTanimoto>
0.644 

> <ROCS_ColorTanimoto>
0.048 

> <ROCS_RefTversky>
0.795 

> <ROCS_RefColorTversky>
0.111 

> <ROCS_RefTverskyCombo>
0.906 

> <ROCS_FitTversky>
0.772 

> <ROCS_FitColorTversky>
0.079 

> <ROCS_FitTverskyCombo>
0.852 

> <ROCS_ColorScore>
-1.018

> <ROCS_Overlap>
1322.618

> <ROCS_Rank>
236                 

$$$$
ligprep_h3d.sdf:1409_670
  -OEChem-08212117123D

 66 69  0     1  0  0  0  0  0999 V2000
  -17.0390   -6.4482  -26.4285 C   0  0  0  0  0  0  0  0  0  0  0  0
  -22.9681   -4.0666  -28.8676 C   0  0  0  0  0  0  0  0  0  0  0  0
  -20.7618   -4.5469  -25.3788 C   0  0  0  0  0  0  0  0  0  0  0  0
  -16.7559   -5.0721  -26.5187 C   0  0  0  0  0  0  0  0  0  0  0  0
  -20.9025   -4.6559  -27.7899 C   0  0  0  0  0  0  0  0  0  0  0  0
  -21.0826   -4.7529  -30.2085 C   0  0  0  0  0  0  0  0  0  0  0  0
  -22.4019   -4.3268  -30.1180 C   0  0  0  0  0  0  0  0  0  0  0  0
  -20.3327   -4.9176  -29.0475 C   0  0  0  0  0  0  0  0  0  0  0  0
  -22.2414   -4.2232  -27.6905 C   0  0  0  0  0  0  0  0  0  0  0  0
  -20.1704   -4.8134  -26.6053 C   0  0  0  0  0  0  0  0  0  0  0  0
  -22.0769   -4.1283  -25.3820 C   0  0  0  0  0  0  0  0  0  0  0  0
  -18.4105   -6.5188  -26.4510 C   0  0  0  0  0  0  0  0  0  0  0  0
  -19.8663   -4.0689  -32.2514 C   0  0  0  0  0  0  0  0  0  0  0  0
  -20.4947   -5.0251  -31.5420 C   0  0  0  0  0  0  0  0  0  0  0  0
  -22.7551   -3.8325  -24.1317 C   0  0  0  0  0  0  0  0  0  0  0  0
  -19.2730   -4.3221  -33.6116 C   0  0  0  0  0  0  0  0  0  0  0  0
  -20.6200   -6.4208  -32.1100 C   0  0  0  0  0  0  0  0  0  0  0  0
  -19.6529   -6.6838  -33.2742 C   0  0  0  0  0  0  0  0  0  0  0  0
  -23.2521   -4.1336  -31.3334 C   0  0  0  0  0  0  0  0  0  0  0  0
  -18.9140   -5.3805  -29.2248 C   0  0  0  0  0  0  0  0  0  0  0  0
  -19.3126   -7.6855  -26.3879 C   0  0  0  0  0  0  0  0  0  0  0  0
  -26.5331   -5.6314  -23.5649 C   0  0  0  0  0  0  0  0  0  0  0  0
  -18.9298   -5.8704  -35.4298 C   0  0  0  0  0  0  0  0  0  0  0  0
  -24.9564   -3.7762  -22.9308 C   0  0  0  0  0  0  0  0  0  0  0  0
  -25.6416   -5.0604  -22.4704 C   0  0  2  0  0  0  0  0  0  0  0  0
  -19.6212   -6.8711  -36.3213 C   0  0  0  0  0  0  0  0  0  0  0  0
  -17.8590   -4.3226  -26.5932 N   0  0  0  0  0  0  0  0  0  0  0  0
  -22.8179   -3.9637  -26.5017 N   0  0  0  0  0  0  0  0  0  0  0  0
  -18.8485   -5.2310  -26.5499 N   0  0  0  0  0  0  0  0  0  0  0  0
  -19.7181   -5.5781  -34.2346 N   0  0  2  0  0  0  0  0  0  0  0  0
  -24.1387   -4.0450  -24.0919 N   0  0  0  0  0  0  0  0  0  0  0  0
  -22.1203   -3.3905  -23.1567 O   0  0  0  0  0  0  0  0  0  0  0  0
  -24.6386   -6.0228  -22.1508 O   0  0  0  0  0  0  0  0  0  0  0  0
  -18.8739   -7.1216  -37.4191 F   0  0  0  0  0  0  0  0  0  0  0  0
  -19.8188   -8.0450  -35.6844 F   0  0  0  0  0  0  0  0  0  0  0  0
  -20.8206   -6.4133  -36.7389 F   0  0  0  0  0  0  0  0  0  0  0  0
  -16.3440   -7.2721  -26.3576 H   0  0  0  0  0  0  0  0  0  0  0  0
  -24.0037   -3.7332  -28.8119 H   0  0  0  0  0  0  0  0  0  0  0  0
  -20.2166   -4.6610  -24.4462 H   0  0  0  0  0  0  0  0  0  0  0  0
  -15.7918   -4.5844  -26.5335 H   0  0  0  0  0  0  0  0  0  0  0  0
  -19.7521   -3.0672  -31.8443 H   0  0  0  0  0  0  0  0  0  0  0  0
  -19.5581   -3.4890  -34.2654 H   0  0  0  0  0  0  0  0  0  0  0  0
  -18.1801   -4.2989  -33.5078 H   0  0  0  0  0  0  0  0  0  0  0  0
  -20.4248   -7.1622  -31.3254 H   0  0  0  0  0  0  0  0  0  0  0  0
  -21.6539   -6.5704  -32.4475 H   0  0  0  0  0  0  0  0  0  0  0  0
  -18.6305   -6.8168  -32.8950 H   0  0  0  0  0  0  0  0  0  0  0  0
  -19.9460   -7.6259  -33.7537 H   0  0  0  0  0  0  0  0  0  0  0  0
  -23.1552   -3.1069  -31.7026 H   0  0  0  0  0  0  0  0  0  0  0  0
  -22.9593   -4.8238  -32.1330 H   0  0  0  0  0  0  0  0  0  0  0  0
  -24.3076   -4.3290  -31.1110 H   0  0  0  0  0  0  0  0  0  0  0  0
  -18.8755   -6.4726  -29.2059 H   0  0  0  0  0  0  0  0  0  0  0  0
  -18.5068   -5.0251  -30.1755 H   0  0  0  0  0  0  0  0  0  0  0  0
  -18.2761   -4.9868  -28.4283 H   0  0  0  0  0  0  0  0  0  0  0  0
  -19.5759   -7.9281  -25.3454 H   0  0  0  0  0  0  0  0  0  0  0  0
  -20.2525   -7.5120  -26.9393 H   0  0  0  0  0  0  0  0  0  0  0  0
  -18.8577   -8.5850  -26.8369 H   0  0  0  0  0  0  0  0  0  0  0  0
  -25.9655   -5.8241  -24.4804 H   0  0  0  0  0  0  0  0  0  0  0  0
  -27.0044   -6.5654  -23.2392 H   0  0  0  0  0  0  0  0  0  0  0  0
  -27.3452   -4.9349  -23.8002 H   0  0  0  0  0  0  0  0  0  0  0  0
  -18.7694   -4.9270  -35.9599 H   0  0  0  0  0  0  0  0  0  0  0  0
  -17.9590   -6.2523  -35.1010 H   0  0  0  0  0  0  0  0  0  0  0  0
  -25.6968   -3.0132  -23.1944 H   0  0  0  0  0  0  0  0  0  0  0  0
  -24.3158   -3.3742  -22.1391 H   0  0  0  0  0  0  0  0  0  0  0  0
  -26.2344   -4.8772  -21.5668 H   0  0  0  0  0  0  0  0  0  0  0  0
  -24.6179   -4.3466  -24.9340 H   0  0  0  0  0  0  0  0  0  0  0  0
  -25.1056   -6.8161  -21.8469 H   0  0  0  0  0  0  0  0  0  0  0  0
  1  4  1  0  0  0  0
  1 12  2  0  0  0  0
  2  7  2  0  0  0  0
  2  9  1  0  0  0  0
  3 10  1  0  0  0  0
  3 11  2  0  0  0  0
  4 27  2  0  0  0  0
  5  8  1  0  0  0  0
  5  9  1  0  0  0  0
  5 10  2  0  0  0  0
  6  7  1  0  0  0  0
  6  8  2  0  0  0  0
  6 14  1  0  0  0  0
  7 19  1  0  0  0  0
  8 20  1  0  0  0  0
  9 28  2  0  0  0  0
 10 29  1  0  0  0  0
 11 15  1  0  0  0  0
 11 28  1  0  0  0  0
 12 21  1  0  0  0  0
 12 29  1  0  0  0  0
 13 14  2  0  0  0  0
 13 16  1  0  0  0  0
 14 17  1  0  0  0  0
 15 31  1  0  0  0  0
 15 32  2  0  0  0  0
 16 30  1  0  0  0  0
 17 18  1  0  0  0  0
 18 30  1  0  0  0  0
 22 25  1  0  0  0  0
 23 26  1  0  0  0  0
 23 30  1  0  0  0  0
 24 25  1  0  0  0  0
 24 31  1  0  0  0  0
 25 33  1  0  0  0  0
 26 34  1  0  0  0  0
 26 35  1  0  0  0  0
 26 36  1  0  0  0  0
 27 29  1  0  0  0  0
  1 37  1  0  0  0  0
  2 38  1  0  0  0  0
  3 39  1  0  0  0  0
  4 40  1  0  0  0  0
 13 41  1  0  0  0  0
 16 42  1  0  0  0  0
 16 43  1  0  0  0  0
 17 44  1  0  0  0  0
 17 45  1  0  0  0  0
 18 46  1  0  0  0  0
 18 47  1  0  0  0  0
 19 48  1  0  0  0  0
 19 49  1  0  0  0  0
 19 50  1  0  0  0  0
 20 51  1  0  0  0  0
 20 52  1  0  0  0  0
 20 53  1  0  0  0  0
 21 54  1  0  0  0  0
 21 55  1  0  0  0  0
 21 56  1  0  0  0  0
 22 57  1  0  0  0  0
 22 58  1  0  0  0  0
 22 59  1  0  0  0  0
 23 60  1  0  0  0  0
 23 61  1  0  0  0  0
 24 62  1  0  0  0  0
 24 63  1  0  0  0  0
 25 64  1  0  0  0  0
 31 65  1  0  0  0  0
 33 66  1  0  0  0  0
M  END
> <SMILES>
C[C@@H](O)CNC(=O)c1cc(c2c(c(c(cc2n1)C)C1=CCN(CC1)CC(F)(F)F)C)-n1nccc1C

> <FORMATTED_ID>
H3D-012439

> <MOLFORMULA>
C26H30F3N5O2

> <Exact Mass>
501.24

> <XLogP>
3.58

> <TPSA_NOPS>
83.3

> <s_m_source_file>
ligprep_h3d.sdf

> <i_m_source_file_index>
1409

> <i_lp_mmshare_version>
55123

> <i_f3d_flags>
0

> <s_epik_input>
W0NIM11jMVtjSF1bY0hdbm4xLWMyW2NIXWMoQyg9TylbTkhdW0NIMl1bQ0BASF0oW0NIM10pW09IXSluYyhjMjMpW2NIXWMoW0NIM10pYyhjM1tDSDNdKUM0PVtDSF1bQ0gyXU4oW0NIMl1bQ0gyXTQpW0NIMl1DKEYpKEYpRg==

> <s_epik_cmdline>
J2VwaWtfcHl0aG9uJywgJy1waHQnLCAnMC41JywgJy1waCcsICc3LjUnLCAnLXRuJywgJzgnLCAnLW1hJywgJzUwMCcsICctaW1hZScsICc8aW5maWxlLm1hZT4nLCAnLW9tYWUnLCAnPG91dGZpbGUubWFlPic=

> <r_lp_tautomer_probability>
1

> <r_epik_Ionization_Penalty>
0.00196298

> <r_epik_Ionization_Penalty_Charging>
0

> <r_epik_Ionization_Penalty_Neutral>
0.00196298

> <r_epik_State_Penalty>
-0

> <r_epik_Charging_Adjusted_Penalty>
0

> <i_epik_Tot_Q>
0

> <i_epik_Tot_abs_Q>
0

> <s_lp_Force_Field>
S-OPLS

> <r_lp_Energy>
55.9624

> <b_lp_Chiralities_Consistent>
1

> <s_lp_Variant>
ligprep_h3d.sdf:1409-1

> <ROCS_ShapeQuery>
_7L13

> <ROCS_TanimotoCombo>
0.773 

> <ROCS_ShapeTanimoto>
0.660 

> <ROCS_ColorTanimoto>
0.113 

> <ROCS_RefTversky>
0.795 

> <ROCS_RefColorTversky>
0.223 

> <ROCS_RefTverskyCombo>
1.017 

> <ROCS_FitTversky>
0.796 

> <ROCS_FitColorTversky>
0.186 

> <ROCS_FitTverskyCombo>
0.982 

> <ROCS_ColorScore>
-2.025

> <ROCS_Overlap>
1319.707

> <ROCS_Rank>
237                 

$$$$
ligprep_h3d.sdf:4746_1708
  -OEChem-08212117123D

 61 65  0     1  0  0  0  0  0999 V2000
  -25.5873   -4.8429  -23.0144 C   0  0  0  0  0  0  0  0  0  0  0  0
  -25.8595   -5.0269  -24.3700 C   0  0  0  0  0  0  0  0  0  0  0  0
  -24.3356   -4.3775  -22.6113 C   0  0  0  0  0  0  0  0  0  0  0  0
  -21.0480   -7.0224  -34.3190 C   0  0  0  0  0  0  0  0  0  0  0  0
  -19.9803   -5.0710  -33.3761 C   0  0  0  0  0  0  0  0  0  0  0  0
  -16.9232   -3.7411  -26.0495 C   0  0  0  0  0  0  0  0  0  0  0  0
  -17.6533   -5.8186  -25.0556 C   0  0  0  0  0  0  0  0  0  0  0  0
  -24.8801   -4.7456  -25.3225 C   0  0  0  0  0  0  0  0  0  0  0  0
  -23.3562   -4.0962  -23.5638 C   0  0  0  0  0  0  0  0  0  0  0  0
  -20.2138   -6.9403  -35.4338 C   0  0  0  0  0  0  0  0  0  0  0  0
  -19.1460   -4.9889  -34.4910 C   0  0  0  0  0  0  0  0  0  0  0  0
  -15.8449   -3.6972  -25.1658 C   0  0  0  0  0  0  0  0  0  0  0  0
  -16.5750   -5.7748  -24.1719 C   0  0  0  0  0  0  0  0  0  0  0  0
  -20.9313   -6.0877  -33.2901 C   0  0  0  0  0  0  0  0  0  0  0  0
  -17.8275   -4.8017  -25.9944 C   0  0  0  0  0  0  0  0  0  0  0  0
  -23.6284   -4.2802  -24.9194 C   0  0  0  0  0  0  0  0  0  0  0  0
  -19.2628   -5.9235  -35.5198 C   0  0  0  0  0  0  0  0  0  0  0  0
  -15.6708   -4.7141  -24.2270 C   0  0  0  0  0  0  0  0  0  0  0  0
  -22.0994   -4.8230  -31.4837 C   0  0  0  0  0  0  0  0  0  0  0  0
  -21.8521   -3.3919  -29.4733 C   0  0  0  0  0  0  0  0  0  0  0  0
  -19.0658   -4.3538  -28.2088 C   0  0  0  0  0  0  0  0  0  0  0  0
  -20.0851   -5.6502  -26.9012 C   0  0  0  0  0  0  0  0  0  0  0  0
  -20.9688   -5.6539  -29.3727 C   0  0  0  0  0  0  0  0  0  0  0  0
  -21.5585   -3.7062  -28.0087 C   0  0  2  0  0  0  0  0  0  0  0  0
  -20.5392   -4.8493  -28.1470 C   0  0  0  0  0  0  0  0  0  0  0  0
  -21.8278   -6.1763  -32.0911 C   0  0  0  0  0  0  0  0  0  0  0  0
  -22.8235   -4.1517  -27.2776 C   0  0  0  0  0  0  0  0  0  0  0  0
  -18.9114   -4.8457  -26.8826 N   0  0  0  0  0  0  0  0  0  0  0  0
  -21.6606   -4.6520  -30.1804 N   0  0  0  0  0  0  0  0  0  0  0  0
  -22.6474   -3.9983  -25.8729 N   0  0  0  0  0  0  0  0  0  0  0  0
  -22.6726   -3.9507  -32.1386 O   0  0  0  0  0  0  0  0  0  0  0  0
  -18.4479   -5.8443  -36.6072 O   0  0  0  0  0  0  0  0  0  0  0  0
  -14.6352   -4.6720  -23.3784 F   0  0  0  0  0  0  0  0  0  0  0  0
  -26.3500   -5.0623  -22.2728 H   0  0  0  0  0  0  0  0  0  0  0  0
  -26.8338   -5.3894  -24.6836 H   0  0  0  0  0  0  0  0  0  0  0  0
  -24.1238   -4.2343  -21.5555 H   0  0  0  0  0  0  0  0  0  0  0  0
  -21.7862   -7.8178  -34.2604 H   0  0  0  0  0  0  0  0  0  0  0  0
  -19.8823   -4.3383  -32.5793 H   0  0  0  0  0  0  0  0  0  0  0  0
  -17.0492   -2.9435  -26.7773 H   0  0  0  0  0  0  0  0  0  0  0  0
  -18.3521   -6.6496  -25.0037 H   0  0  0  0  0  0  0  0  0  0  0  0
  -25.1022   -4.8925  -26.3763 H   0  0  0  0  0  0  0  0  0  0  0  0
  -22.3845   -3.7338  -23.2378 H   0  0  0  0  0  0  0  0  0  0  0  0
  -20.3094   -7.6716  -36.2320 H   0  0  0  0  0  0  0  0  0  0  0  0
  -18.4070   -4.1949  -34.5519 H   0  0  0  0  0  0  0  0  0  0  0  0
  -15.1405   -2.8717  -25.2086 H   0  0  0  0  0  0  0  0  0  0  0  0
  -16.4391   -6.5661  -23.4406 H   0  0  0  0  0  0  0  0  0  0  0  0
  -22.8519   -2.9859  -29.6548 H   0  0  0  0  0  0  0  0  0  0  0  0
  -21.1155   -2.6874  -29.8767 H   0  0  0  0  0  0  0  0  0  0  0  0
  -18.4067   -4.8454  -28.9304 H   0  0  0  0  0  0  0  0  0  0  0  0
  -18.9312   -3.2673  -28.2663 H   0  0  0  0  0  0  0  0  0  0  0  0
  -20.6960   -5.5120  -26.0021 H   0  0  0  0  0  0  0  0  0  0  0  0
  -19.8765   -6.7126  -27.0555 H   0  0  0  0  0  0  0  0  0  0  0  0
  -20.1391   -6.0999  -29.9306 H   0  0  0  0  0  0  0  0  0  0  0  0
  -21.6931   -6.4356  -29.1165 H   0  0  0  0  0  0  0  0  0  0  0  0
  -21.1396   -2.8338  -27.4971 H   0  0  0  0  0  0  0  0  0  0  0  0
  -22.7808   -6.6313  -32.3662 H   0  0  0  0  0  0  0  0  0  0  0  0
  -21.3873   -6.8156  -31.3246 H   0  0  0  0  0  0  0  0  0  0  0  0
  -23.6390   -3.5244  -27.6331 H   0  0  0  0  0  0  0  0  0  0  0  0
  -22.9915   -5.1968  -27.5317 H   0  0  0  0  0  0  0  0  0  0  0  0
  -21.7485   -3.6612  -25.5184 H   0  0  0  0  0  0  0  0  0  0  0  0
  -17.8445   -5.0892  -36.5210 H   0  0  0  0  0  0  0  0  0  0  0  0
  1  2  2  0  0  0  0
  1  3  1  0  0  0  0
  2  8  1  0  0  0  0
  3  9  2  0  0  0  0
  4 10  1  0  0  0  0
  4 14  2  0  0  0  0
  5 11  2  0  0  0  0
  5 14  1  0  0  0  0
  6 12  1  0  0  0  0
  6 15  2  0  0  0  0
  7 13  2  0  0  0  0
  7 15  1  0  0  0  0
  8 16  2  0  0  0  0
  9 16  1  0  0  0  0
 10 17  2  0  0  0  0
 11 17  1  0  0  0  0
 12 18  2  0  0  0  0
 13 18  1  0  0  0  0
 14 26  1  0  0  0  0
 15 28  1  0  0  0  0
 16 30  1  0  0  0  0
 17 32  1  0  0  0  0
 18 33  1  0  0  0  0
 19 26  1  0  0  0  0
 19 29  1  0  0  0  0
 19 31  2  0  0  0  0
 20 24  1  0  0  0  0
 20 29  1  0  0  0  0
 21 25  1  0  0  0  0
 21 28  1  0  0  0  0
 22 25  1  0  0  0  0
 22 28  1  0  0  0  0
 23 25  1  0  0  0  0
 23 29  1  0  0  0  0
 24 25  1  0  0  0  0
 24 27  1  0  0  0  0
 27 30  1  0  0  0  0
  1 34  1  0  0  0  0
  2 35  1  0  0  0  0
  3 36  1  0  0  0  0
  4 37  1  0  0  0  0
  5 38  1  0  0  0  0
  6 39  1  0  0  0  0
  7 40  1  0  0  0  0
  8 41  1  0  0  0  0
  9 42  1  0  0  0  0
 10 43  1  0  0  0  0
 11 44  1  0  0  0  0
 12 45  1  0  0  0  0
 13 46  1  0  0  0  0
 20 47  1  0  0  0  0
 20 48  1  0  0  0  0
 21 49  1  0  0  0  0
 21 50  1  0  0  0  0
 22 51  1  0  0  0  0
 22 52  1  0  0  0  0
 23 53  1  0  0  0  0
 23 54  1  0  0  0  0
 24 55  1  0  0  0  0
 26 56  1  0  0  0  0
 26 57  1  0  0  0  0
 27 58  1  0  0  0  0
 27 59  1  0  0  0  0
 30 60  1  0  0  0  0
 32 61  1  0  0  0  0
M  END
> <SMILES>
Oc1ccc(cc1)CC(=O)N1C[C@@H](CNc2ccccc2)C2(C1)CN(C2)c1ccc(cc1)F

> <FORMATTED_ID>
H3D-007250

> <MOLFORMULA>
C27H28FN3O2

> <Exact Mass>
445.22

> <XLogP>
3.92

> <TPSA_NOPS>
55.8

> <s_m_source_file>
ligprep_h3d.sdf

> <i_m_source_file_index>
4746

> <i_lp_mmshare_version>
55123

> <i_f3d_flags>
0

> <s_epik_input>
W09IXWMxW2NIXVtjSF1jKFtjSF1bY0hdMSlbQ0gyXUMoPU8pTihbQ0gyXTIpW0NIMl1bQ0BASF0oW0NIMl1bTkhdYzNbY0hdW2NIXVtjSF1bY0hdW2NIXTMpQzI0W0NIMl1OKFtDSDJdNCljNVtjSF1bY0hdYyhGKVtjSF1bY0hdNQ==

> <s_epik_cmdline>
J2VwaWtfcHl0aG9uJywgJy1waHQnLCAnMC41JywgJy1waCcsICc3LjUnLCAnLXRuJywgJzgnLCAnLW1hJywgJzUwMCcsICctaW1hZScsICc8aW5maWxlLm1hZT4nLCAnLW9tYWUnLCAnPG91dGZpbGUubWFlPic=

> <r_lp_tautomer_probability>
1

> <r_epik_Ionization_Penalty>
0.00557456

> <r_epik_Ionization_Penalty_Charging>
0

> <r_epik_Ionization_Penalty_Neutral>
0.00557456

> <r_epik_State_Penalty>
-0

> <r_epik_Charging_Adjusted_Penalty>
0

> <i_epik_Tot_Q>
0

> <i_epik_Tot_abs_Q>
0

> <s_lp_Force_Field>
S-OPLS

> <r_lp_Energy>
43.3296

> <b_lp_Chiralities_Consistent>
1

> <s_lp_Variant>
ligprep_h3d.sdf:4746-1

> <ROCS_ShapeQuery>
_7L13

> <ROCS_TanimotoCombo>
0.770 

> <ROCS_ShapeTanimoto>
0.708 

> <ROCS_ColorTanimoto>
0.061 

> <ROCS_RefTversky>
0.795 

> <ROCS_RefColorTversky>
0.115 

> <ROCS_RefTverskyCombo>
0.910 

> <ROCS_FitTversky>
0.867 

> <ROCS_FitColorTversky>
0.115 

> <ROCS_FitTverskyCombo>
0.982 

> <ROCS_ColorScore>
-1.039

> <ROCS_Overlap>
1313.735

> <ROCS_Rank>
238                 

$$$$
ligprep_h3d.sdf:5149_1730
  -OEChem-08212117123D

 62 66  0     0  0  0  0  0  0999 V2000
  -18.9505   -5.5365  -34.9759 C   0  0  0  0  0  0  0  0  0  0  0  0
  -19.8935   -6.5178  -34.6705 C   0  0  0  0  0  0  0  0  0  0  0  0
  -18.9740   -4.3138  -34.3049 C   0  0  0  0  0  0  0  0  0  0  0  0
  -20.8600   -6.2765  -33.6941 C   0  0  0  0  0  0  0  0  0  0  0  0
  -19.9405   -4.0725  -33.3286 C   0  0  0  0  0  0  0  0  0  0  0  0
  -18.4462   -3.7245  -26.1693 C   0  0  0  0  0  0  0  0  0  0  0  0
  -18.6955   -6.0313  -25.5364 C   0  0  0  0  0  0  0  0  0  0  0  0
  -23.6597   -4.0286  -28.1245 C   0  0  0  0  0  0  0  0  0  0  0  0
  -20.9208   -4.3268  -28.7056 C   0  0  0  0  0  0  0  0  0  0  0  0
  -17.0930   -3.8532  -25.9013 C   0  0  0  0  0  0  0  0  0  0  0  0
  -17.3310   -6.0568  -25.2968 C   0  0  0  0  0  0  0  0  0  0  0  0
  -22.7426   -4.3261  -27.1236 C   0  0  0  0  0  0  0  0  0  0  0  0
  -20.8835   -5.0538  -33.0231 C   0  0  0  0  0  0  0  0  0  0  0  0
  -19.2559   -4.8390  -25.9809 C   0  0  0  0  0  0  0  0  0  0  0  0
  -21.3738   -4.4593  -27.3988 C   0  0  0  0  0  0  0  0  0  0  0  0
  -23.1983   -3.8826  -29.4311 C   0  0  0  0  0  0  0  0  0  0  0  0
  -21.8378   -4.0354  -29.7204 C   0  0  0  0  0  0  0  0  0  0  0  0
  -25.8527   -3.9994  -22.5486 C   0  0  0  0  0  0  0  0  0  0  0  0
  -23.2454   -3.1444  -24.9729 C   0  0  0  0  0  0  0  0  0  0  0  0
  -24.1633   -5.4689  -25.3500 C   0  0  0  0  0  0  0  0  0  0  0  0
  -23.6103   -3.2665  -23.4915 C   0  0  0  0  0  0  0  0  0  0  0  0
  -24.4545   -5.5641  -23.8543 C   0  0  0  0  0  0  0  0  0  0  0  0
  -21.6264   -5.1295  -25.2139 C   0  0  0  0  0  0  0  0  0  0  0  0
  -22.9942   -4.5115  -25.6474 C   0  0  0  0  0  0  0  0  0  0  0  0
  -25.9949   -2.6310  -21.9311 C   0  0  0  0  0  0  0  0  0  0  0  0
  -24.3247   -2.2125  -30.6952 C   0  0  0  0  0  0  0  0  0  0  0  0
  -21.9231   -4.7935  -31.9729 C   0  0  0  0  0  0  0  0  0  0  0  0
  -16.5124   -4.9947  -25.4683 N   0  0  0  0  0  0  0  0  0  0  0  0
  -20.6282   -4.7612  -26.2367 N   0  0  0  0  0  0  0  0  0  0  0  0
  -24.6900   -4.2374  -23.2828 N   0  0  0  0  0  0  0  0  0  0  0  0
  -26.7503   -4.8297  -22.3842 O   0  0  0  0  0  0  0  0  0  0  0  0
  -24.0854   -3.5918  -30.4242 O   0  0  0  0  0  0  0  0  0  0  0  0
  -21.3885   -3.8984  -31.0008 O   0  0  0  0  0  0  0  0  0  0  0  0
  -18.1972   -5.7250  -35.7352 H   0  0  0  0  0  0  0  0  0  0  0  0
  -19.8747   -7.4703  -35.1921 H   0  0  0  0  0  0  0  0  0  0  0  0
  -18.2393   -3.5499  -34.5417 H   0  0  0  0  0  0  0  0  0  0  0  0
  -21.5909   -7.0469  -33.4629 H   0  0  0  0  0  0  0  0  0  0  0  0
  -19.9511   -3.1169  -32.8110 H   0  0  0  0  0  0  0  0  0  0  0  0
  -18.8520   -2.7797  -26.5153 H   0  0  0  0  0  0  0  0  0  0  0  0
  -19.2984   -6.9194  -25.3791 H   0  0  0  0  0  0  0  0  0  0  0  0
  -24.7138   -3.9064  -27.8971 H   0  0  0  0  0  0  0  0  0  0  0  0
  -19.8667   -4.4413  -28.9414 H   0  0  0  0  0  0  0  0  0  0  0  0
  -16.4186   -3.0133  -26.0327 H   0  0  0  0  0  0  0  0  0  0  0  0
  -16.8449   -6.9626  -24.9494 H   0  0  0  0  0  0  0  0  0  0  0  0
  -24.0667   -2.6248  -25.4857 H   0  0  0  0  0  0  0  0  0  0  0  0
  -22.3665   -2.4945  -25.0735 H   0  0  0  0  0  0  0  0  0  0  0  0
  -23.9567   -6.4703  -25.7484 H   0  0  0  0  0  0  0  0  0  0  0  0
  -25.0753   -5.1257  -25.8561 H   0  0  0  0  0  0  0  0  0  0  0  0
  -22.7519   -3.6134  -22.9058 H   0  0  0  0  0  0  0  0  0  0  0  0
  -23.8714   -2.2778  -23.1095 H   0  0  0  0  0  0  0  0  0  0  0  0
  -25.3179   -6.2168  -23.6907 H   0  0  0  0  0  0  0  0  0  0  0  0
  -23.6078   -6.0078  -23.3179 H   0  0  0  0  0  0  0  0  0  0  0  0
  -21.3071   -4.7877  -24.2233 H   0  0  0  0  0  0  0  0  0  0  0  0
  -21.6938   -6.2260  -25.1743 H   0  0  0  0  0  0  0  0  0  0  0  0
  -26.4960   -1.9745  -22.6348 H   0  0  0  0  0  0  0  0  0  0  0  0
  -25.0089   -2.2419  -21.6983 H   0  0  0  0  0  0  0  0  0  0  0  0
  -26.5778   -2.7118  -21.0193 H   0  0  0  0  0  0  0  0  0  0  0  0
  -25.0503   -2.1204  -31.5071 H   0  0  0  0  0  0  0  0  0  0  0  0
  -23.3861   -1.7269  -30.9742 H   0  0  0  0  0  0  0  0  0  0  0  0
  -24.7250   -1.7378  -29.7962 H   0  0  0  0  0  0  0  0  0  0  0  0
  -22.8216   -4.3477  -32.4130 H   0  0  0  0  0  0  0  0  0  0  0  0
  -22.2174   -5.7259  -31.4792 H   0  0  0  0  0  0  0  0  0  0  0  0
  1  2  2  0  0  0  0
  1  3  1  0  0  0  0
  2  4  1  0  0  0  0
  3  5  2  0  0  0  0
  4 13  2  0  0  0  0
  5 13  1  0  0  0  0
  6 10  1  0  0  0  0
  6 14  2  0  0  0  0
  7 11  2  0  0  0  0
  7 14  1  0  0  0  0
  8 12  1  0  0  0  0
  8 16  2  0  0  0  0
  9 15  1  0  0  0  0
  9 17  2  0  0  0  0
 10 28  2  0  0  0  0
 11 28  1  0  0  0  0
 12 15  2  0  0  0  0
 12 24  1  0  0  0  0
 13 27  1  0  0  0  0
 14 29  1  0  0  0  0
 15 29  1  0  0  0  0
 16 17  1  0  0  0  0
 16 32  1  0  0  0  0
 17 33  1  0  0  0  0
 18 25  1  0  0  0  0
 18 30  1  0  0  0  0
 18 31  2  0  0  0  0
 19 21  1  0  0  0  0
 19 24  1  0  0  0  0
 20 22  1  0  0  0  0
 20 24  1  0  0  0  0
 21 30  1  0  0  0  0
 22 30  1  0  0  0  0
 23 24  1  0  0  0  0
 23 29  1  0  0  0  0
 26 32  1  0  0  0  0
 27 33  1  0  0  0  0
  1 34  1  0  0  0  0
  2 35  1  0  0  0  0
  3 36  1  0  0  0  0
  4 37  1  0  0  0  0
  5 38  1  0  0  0  0
  6 39  1  0  0  0  0
  7 40  1  0  0  0  0
  8 41  1  0  0  0  0
  9 42  1  0  0  0  0
 10 43  1  0  0  0  0
 11 44  1  0  0  0  0
 19 45  1  0  0  0  0
 19 46  1  0  0  0  0
 20 47  1  0  0  0  0
 20 48  1  0  0  0  0
 21 49  1  0  0  0  0
 21 50  1  0  0  0  0
 22 51  1  0  0  0  0
 22 52  1  0  0  0  0
 23 53  1  0  0  0  0
 23 54  1  0  0  0  0
 25 55  1  0  0  0  0
 25 56  1  0  0  0  0
 25 57  1  0  0  0  0
 26 58  1  0  0  0  0
 26 59  1  0  0  0  0
 26 60  1  0  0  0  0
 27 61  1  0  0  0  0
 27 62  1  0  0  0  0
M  END
> <SMILES>
COc1cc2c(cc1OCc1ccccc1)N(CC12CCN(CC1)C(=O)C)c1ccncc1

> <FORMATTED_ID>
H3D-013906

> <MOLFORMULA>
C27H29N3O3

> <Exact Mass>
443.22

> <XLogP>
5.14

> <TPSA_NOPS>
54.9

> <s_m_source_file>
ligprep_h3d.sdf

> <i_m_source_file_index>
5149

> <i_lp_mmshare_version>
55123

> <i_f3d_flags>
0

> <s_epik_input>
W2NIXTFbY0hdW2NIXVtjSF1bY0hdYzFbQ0gyXU9jKGMoW2NIXTIpT1tDSDNdKVtjSF1jKGMyQzM0W0NIMl1bQ0gyXU4oW0NIMl1bQ0gyXTQpQyg9TylbQ0gzXSlOKFtDSDJdMyljNVtjSF1bY0hdbltjSF1bY0hdNQ==

> <s_epik_cmdline>
J2VwaWtfcHl0aG9uJywgJy1waHQnLCAnMC41JywgJy1waCcsICc3LjUnLCAnLXRuJywgJzgnLCAnLW1hJywgJzUwMCcsICctaW1hZScsICc8aW5maWxlLm1hZT4nLCAnLW9tYWUnLCAnPG91dGZpbGUubWFlPic=

> <r_lp_tautomer_probability>
1

> <r_epik_Ionization_Penalty>
0.157363

> <r_epik_Ionization_Penalty_Charging>
0

> <r_epik_Ionization_Penalty_Neutral>
0.157363

> <r_epik_State_Penalty>
0.146622

> <r_epik_Charging_Adjusted_Penalty>
0.146622

> <i_epik_Tot_Q>
0

> <i_epik_Tot_abs_Q>
0

> <s_lp_Force_Field>
S-OPLS

> <r_lp_Energy>
60.6176

> <b_lp_Chiralities_Consistent>
1

> <s_lp_Variant>
ligprep_h3d.sdf:5149-1

> <ROCS_ShapeQuery>
_7L13

> <ROCS_TanimotoCombo>
0.834 

> <ROCS_ShapeTanimoto>
0.705 

> <ROCS_ColorTanimoto>
0.129 

> <ROCS_RefTversky>
0.795 

> <ROCS_RefColorTversky>
0.228 

> <ROCS_RefTverskyCombo>
1.023 

> <ROCS_FitTversky>
0.862 

> <ROCS_FitColorTversky>
0.228 

> <ROCS_FitTverskyCombo>
1.090 

> <ROCS_ColorScore>
-2.052

> <ROCS_Overlap>
1313.840

> <ROCS_Rank>
239                 

$$$$
ligprep_h3d.sdf:5185_382
  -OEChem-08212117123D

 70 75  0     1  0  0  0  0  0999 V2000
  -25.7443   -4.8431  -20.9510 C   0  0  0  0  0  0  0  0  0  0  0  0
  -17.1666   -6.3004  -24.3788 C   0  0  0  0  0  0  0  0  0  0  0  0
  -18.1080   -6.8525  -37.3692 C   0  0  0  0  0  0  0  0  0  0  0  0
  -26.7494   -5.4441  -21.7088 C   0  0  0  0  0  0  0  0  0  0  0  0
  -24.6423   -4.2686  -21.5845 C   0  0  0  0  0  0  0  0  0  0  0  0
  -18.4354   -6.8336  -24.1525 C   0  0  0  0  0  0  0  0  0  0  0  0
  -16.9973   -5.2727  -25.3067 C   0  0  0  0  0  0  0  0  0  0  0  0
  -19.2805   -6.1193  -37.1868 C   0  0  0  0  0  0  0  0  0  0  0  0
  -17.7900   -7.8892  -36.4918 C   0  0  0  0  0  0  0  0  0  0  0  0
  -26.6525   -5.4707  -23.1000 C   0  0  0  0  0  0  0  0  0  0  0  0
  -24.5454   -4.2952  -22.9757 C   0  0  0  0  0  0  0  0  0  0  0  0
  -23.0092   -5.6271  -32.3693 C   0  0  0  0  0  0  0  0  0  0  0  0
  -20.8086   -4.6320  -32.3045 C   0  0  0  0  0  0  0  0  0  0  0  0
  -19.5350   -6.3394  -24.8540 C   0  0  0  0  0  0  0  0  0  0  0  0
  -18.0969   -4.7784  -26.0083 C   0  0  0  0  0  0  0  0  0  0  0  0
  -20.1350   -6.4228  -36.1270 C   0  0  0  0  0  0  0  0  0  0  0  0
  -18.6446   -8.1927  -35.4319 C   0  0  0  0  0  0  0  0  0  0  0  0
  -22.5066   -6.6896  -33.1203 C   0  0  0  0  0  0  0  0  0  0  0  0
  -20.3060   -5.6946  -33.0554 C   0  0  0  0  0  0  0  0  0  0  0  0
  -22.1602   -4.5982  -31.9615 C   0  0  0  0  0  0  0  0  0  0  0  0
  -25.5504   -4.8962  -23.7335 C   0  0  0  0  0  0  0  0  0  0  0  0
  -19.3658   -5.3117  -25.7819 C   0  0  0  0  0  0  0  0  0  0  0  0
  -19.8171   -7.4594  -35.2495 C   0  0  0  0  0  0  0  0  0  0  0  0
  -21.1550   -6.7234  -33.4633 C   0  0  0  0  0  0  0  0  0  0  0  0
  -22.6901   -3.4775  -31.1693 C   0  0  0  0  0  0  0  0  0  0  0  0
  -25.4472   -4.9247  -25.2153 C   0  0  0  0  0  0  0  0  0  0  0  0
  -23.1672   -2.5327  -28.9312 C   0  0  0  0  0  0  0  0  0  0  0  0
  -21.8500   -5.1664  -26.4549 C   0  0  0  0  0  0  0  0  0  0  0  0
  -20.6659   -3.6012  -27.2059 C   0  0  0  0  0  0  0  0  0  0  0  0
  -22.1119   -4.7203  -29.0244 C   0  0  0  0  0  0  0  0  0  0  0  0
  -23.1945   -3.1185  -27.5232 C   0  0  2  0  0  0  0  0  0  0  0  0
  -22.0650   -4.1501  -27.6029 C   0  0  0  0  0  0  0  0  0  0  0  0
  -24.5382   -3.7780  -27.2190 C   0  0  0  0  0  0  0  0  0  0  0  0
  -20.4706   -4.8146  -26.4871 N   0  0  0  0  0  0  0  0  0  0  0  0
  -22.6730   -3.6047  -29.7865 N   0  0  0  0  0  0  0  0  0  0  0  0
  -24.7075   -3.8994  -25.8103 N   0  0  0  0  0  0  0  0  0  0  0  0
  -23.1028   -2.4972  -31.7857 O   0  0  0  0  0  0  0  0  0  0  0  0
  -26.0195   -5.8142  -25.8397 O   0  0  0  0  0  0  0  0  0  0  0  0
  -20.6644   -7.7600  -34.1962 O   0  0  0  0  0  0  0  0  0  0  0  0
  -25.8198   -4.8224  -19.8678 H   0  0  0  0  0  0  0  0  0  0  0  0
  -16.3103   -6.6855  -23.8326 H   0  0  0  0  0  0  0  0  0  0  0  0
  -17.4426   -6.6169  -38.1946 H   0  0  0  0  0  0  0  0  0  0  0  0
  -27.6072   -5.8915  -21.2154 H   0  0  0  0  0  0  0  0  0  0  0  0
  -23.8599   -3.8004  -20.9945 H   0  0  0  0  0  0  0  0  0  0  0  0
  -18.5670   -7.6337  -23.4302 H   0  0  0  0  0  0  0  0  0  0  0  0
  -16.0091   -4.8575  -25.4828 H   0  0  0  0  0  0  0  0  0  0  0  0
  -19.5281   -5.3119  -37.8699 H   0  0  0  0  0  0  0  0  0  0  0  0
  -16.8769   -8.4598  -36.6345 H   0  0  0  0  0  0  0  0  0  0  0  0
  -27.4414   -5.9416  -23.6808 H   0  0  0  0  0  0  0  0  0  0  0  0
  -23.6821   -3.8445  -23.4586 H   0  0  0  0  0  0  0  0  0  0  0  0
  -24.0642   -5.6116  -32.1077 H   0  0  0  0  0  0  0  0  0  0  0  0
  -20.1387   -3.8353  -31.9913 H   0  0  0  0  0  0  0  0  0  0  0  0
  -20.5195   -6.7618  -24.6704 H   0  0  0  0  0  0  0  0  0  0  0  0
  -17.9530   -3.9772  -26.7288 H   0  0  0  0  0  0  0  0  0  0  0  0
  -21.0461   -5.8468  -35.9896 H   0  0  0  0  0  0  0  0  0  0  0  0
  -18.3909   -9.0001  -34.7505 H   0  0  0  0  0  0  0  0  0  0  0  0
  -23.1730   -7.4880  -33.4351 H   0  0  0  0  0  0  0  0  0  0  0  0
  -19.2523   -5.7153  -33.3199 H   0  0  0  0  0  0  0  0  0  0  0  0
  -24.1346   -2.1628  -29.2853 H   0  0  0  0  0  0  0  0  0  0  0  0
  -22.4412   -1.7139  -28.9998 H   0  0  0  0  0  0  0  0  0  0  0  0
  -22.3210   -4.9078  -25.5006 H   0  0  0  0  0  0  0  0  0  0  0  0
  -22.0319   -6.2170  -26.6947 H   0  0  0  0  0  0  0  0  0  0  0  0
  -19.9419   -3.4570  -28.0123 H   0  0  0  0  0  0  0  0  0  0  0  0
  -20.6676   -2.7254  -26.5476 H   0  0  0  0  0  0  0  0  0  0  0  0
  -21.1355   -5.0135  -29.4219 H   0  0  0  0  0  0  0  0  0  0  0  0
  -22.8052   -5.5644  -29.1047 H   0  0  0  0  0  0  0  0  0  0  0  0
  -23.0012   -2.3456  -26.7715 H   0  0  0  0  0  0  0  0  0  0  0  0
  -25.3129   -3.1430  -27.6454 H   0  0  0  0  0  0  0  0  0  0  0  0
  -24.5300   -4.7591  -27.6906 H   0  0  0  0  0  0  0  0  0  0  0  0
  -24.3176   -3.1646  -25.2121 H   0  0  0  0  0  0  0  0  0  0  0  0
  1  4  2  0  0  0  0
  1  5  1  0  0  0  0
  2  6  2  0  0  0  0
  2  7  1  0  0  0  0
  3  8  2  0  0  0  0
  3  9  1  0  0  0  0
  4 10  1  0  0  0  0
  5 11  2  0  0  0  0
  6 14  1  0  0  0  0
  7 15  2  0  0  0  0
  8 16  1  0  0  0  0
  9 17  2  0  0  0  0
 10 21  2  0  0  0  0
 11 21  1  0  0  0  0
 12 18  1  0  0  0  0
 12 20  2  0  0  0  0
 13 19  2  0  0  0  0
 13 20  1  0  0  0  0
 14 22  2  0  0  0  0
 15 22  1  0  0  0  0
 16 23  2  0  0  0  0
 17 23  1  0  0  0  0
 18 24  2  0  0  0  0
 19 24  1  0  0  0  0
 20 25  1  0  0  0  0
 21 26  1  0  0  0  0
 22 34  1  0  0  0  0
 23 39  1  0  0  0  0
 24 39  1  0  0  0  0
 25 35  1  0  0  0  0
 25 37  2  0  0  0  0
 26 36  1  0  0  0  0
 26 38  2  0  0  0  0
 27 31  1  0  0  0  0
 27 35  1  0  0  0  0
 28 32  1  0  0  0  0
 28 34  1  0  0  0  0
 29 32  1  0  0  0  0
 29 34  1  0  0  0  0
 30 32  1  0  0  0  0
 30 35  1  0  0  0  0
 31 32  1  0  0  0  0
 31 33  1  0  0  0  0
 33 36  1  0  0  0  0
  1 40  1  0  0  0  0
  2 41  1  0  0  0  0
  3 42  1  0  0  0  0
  4 43  1  0  0  0  0
  5 44  1  0  0  0  0
  6 45  1  0  0  0  0
  7 46  1  0  0  0  0
  8 47  1  0  0  0  0
  9 48  1  0  0  0  0
 10 49  1  0  0  0  0
 11 50  1  0  0  0  0
 12 51  1  0  0  0  0
 13 52  1  0  0  0  0
 14 53  1  0  0  0  0
 15 54  1  0  0  0  0
 16 55  1  0  0  0  0
 17 56  1  0  0  0  0
 18 57  1  0  0  0  0
 19 58  1  0  0  0  0
 27 59  1  0  0  0  0
 27 60  1  0  0  0  0
 28 61  1  0  0  0  0
 28 62  1  0  0  0  0
 29 63  1  0  0  0  0
 29 64  1  0  0  0  0
 30 65  1  0  0  0  0
 30 66  1  0  0  0  0
 31 67  1  0  0  0  0
 33 68  1  0  0  0  0
 33 69  1  0  0  0  0
 36 70  1  0  0  0  0
M  END
> <SMILES>
O=C(NCC1CN(CC21CN(C2)c1ccccc1)C(=O)c1ccc(cc1)Oc1ccccc1)c1ccccc1

> <FORMATTED_ID>
H3D-014002

> <MOLFORMULA>
C33H31N3O3

> <Exact Mass>
517.24

> <XLogP>
5.36

> <TPSA_NOPS>
61.9

> <s_m_source_file>
ligprep_h3d.sdf

> <i_m_source_file_index>
5185

> <i_lp_mmshare_version>
55123

> <i_f3d_flags>
0

> <s_epik_input>
W2NIXTFbY0hdW2NIXVtjSF1bY0hdYzFOKFtDSDJdMilbQ0gyXUMyM1tDQEhdKFtDSDJdW05IXUMoPU8pYzRbY0hdW2NIXVtjSF1bY0hdW2NIXTQpW0NIMl1OKFtDSDJdMylDKD1PKWM1W2NIXVtjSF1jKFtjSF1bY0hdNSlPYzZbY0hdW2NIXVtjSF1bY0hdW2NIXTY=

> <s_epik_cmdline>
J2VwaWtfcHl0aG9uJywgJy1waHQnLCAnMC41JywgJy1waCcsICc3LjUnLCAnLXRuJywgJzgnLCAnLW1hJywgJzUwMCcsICctaW1hZScsICc8aW5maWxlLm1hZT4nLCAnLW9tYWUnLCAnPG91dGZpbGUubWFlPic=

> <r_lp_tautomer_probability>
1

> <r_epik_Ionization_Penalty>
0.000766303

> <r_epik_Ionization_Penalty_Charging>
0

> <r_epik_Ionization_Penalty_Neutral>
0.000766303

> <r_epik_State_Penalty>
-0

> <r_epik_Charging_Adjusted_Penalty>
0

> <i_epik_Tot_Q>
0

> <i_epik_Tot_abs_Q>
0

> <s_lp_Force_Field>
S-OPLS

> <r_lp_Energy>
51.3699

> <b_lp_Chiralities_Consistent>
1

> <s_lp_Variant>
ligprep_h3d.sdf:5185-1

> <ROCS_ShapeQuery>
_7L13

> <ROCS_TanimotoCombo>
0.676 

> <ROCS_ShapeTanimoto>
0.620 

> <ROCS_ColorTanimoto>
0.056 

> <ROCS_RefTversky>
0.795 

> <ROCS_RefColorTversky>
0.112 

> <ROCS_RefTverskyCombo>
0.907 

> <ROCS_FitTversky>
0.738 

> <ROCS_FitColorTversky>
0.102 

> <ROCS_FitTverskyCombo>
0.840 

> <ROCS_ColorScore>
-1.014

> <ROCS_Overlap>
1325.164

> <ROCS_Rank>
240                 

$$$$
ligprep_h3d.sdf:5023_1333
  -OEChem-08212117123D

 63 67  0     1  0  0  0  0  0999 V2000
  -22.3123   -6.8170  -33.3954 C   0  0  0  0  0  0  0  0  0  0  0  0
  -25.0461   -4.6199  -25.2758 C   0  0  0  0  0  0  0  0  0  0  0  0
  -23.3106   -4.8405  -23.6095 C   0  0  0  0  0  0  0  0  0  0  0  0
  -21.4688   -7.6252  -34.1574 C   0  0  0  0  0  0  0  0  0  0  0  0
  -25.9740   -4.3406  -24.2724 C   0  0  0  0  0  0  0  0  0  0  0  0
  -24.2385   -4.5612  -22.6062 C   0  0  0  0  0  0  0  0  0  0  0  0
  -20.7468   -4.9885  -33.6016 C   0  0  0  0  0  0  0  0  0  0  0  0
  -17.0673   -5.6305  -26.2394 C   0  0  0  0  0  0  0  0  0  0  0  0
  -17.6904   -3.6495  -25.0048 C   0  0  0  0  0  0  0  0  0  0  0  0
  -15.7493   -4.9258  -24.3411 C   0  0  0  0  0  0  0  0  0  0  0  0
  -21.9514   -5.4986  -33.1175 C   0  0  0  0  0  0  0  0  0  0  0  0
  -17.9220   -4.5447  -26.0491 C   0  0  0  0  0  0  0  0  0  0  0  0
  -23.7144   -4.8699  -24.9443 C   0  0  0  0  0  0  0  0  0  0  0  0
  -20.2642   -7.1151  -34.6416 C   0  0  0  0  0  0  0  0  0  0  0  0
  -25.5702   -4.3113  -22.9376 C   0  0  0  0  0  0  0  0  0  0  0  0
  -15.9810   -5.8211  -25.3854 C   0  0  0  0  0  0  0  0  0  0  0  0
  -16.6040   -3.8400  -24.1508 C   0  0  0  0  0  0  0  0  0  0  0  0
  -19.9032   -5.7967  -34.3637 C   0  0  0  0  0  0  0  0  0  0  0  0
  -22.1331   -3.6152  -31.4411 C   0  0  0  0  0  0  0  0  0  0  0  0
  -22.0471   -5.3644  -29.6052 C   0  0  0  0  0  0  0  0  0  0  0  0
  -19.2064   -4.6829  -28.2781 C   0  0  0  0  0  0  0  0  0  0  0  0
  -20.1510   -3.5023  -26.8135 C   0  0  0  0  0  0  0  0  0  0  0  0
  -21.0564   -3.1727  -29.2541 C   0  0  0  0  0  0  0  0  0  0  0  0
  -21.7252   -5.2338  -28.1175 C   0  0  1  0  0  0  0  0  0  0  0  0
  -20.6537   -4.1311  -28.1368 C   0  0  0  0  0  0  0  0  0  0  0  0
  -22.9616   -4.8177  -27.3226 C   0  0  0  0  0  0  0  0  0  0  0  0
  -22.8672   -4.6222  -32.2901 C   0  0  1  0  0  0  0  0  0  0  0  0
  -19.0137   -4.3525  -26.9076 N   0  0  0  0  0  0  0  0  0  0  0  0
  -21.7788   -4.0440  -30.1719 N   0  0  0  0  0  0  0  0  0  0  0  0
  -23.8620   -3.9043  -33.0628 N   0  0  0  0  0  0  0  0  0  0  0  0
  -22.7853   -5.1496  -25.9491 N   0  0  0  0  0  0  0  0  0  0  0  0
  -21.8878   -2.4910  -31.8820 O   0  0  0  0  0  0  0  0  0  0  0  0
  -19.4602   -7.9275  -35.3844 O   0  0  0  0  0  0  0  0  0  0  0  0
  -26.4612   -4.0431  -21.9741 F   0  0  0  0  0  0  0  0  0  0  0  0
  -15.1594   -6.8628  -25.5697 F   0  0  0  0  0  0  0  0  0  0  0  0
  -16.3805   -2.9792  -23.1492 F   0  0  0  0  0  0  0  0  0  0  0  0
  -18.4196   -5.1400  -34.9505 Cl  0  0  0  0  0  0  0  0  0  0  0  0
  -23.2488   -7.2230  -33.0219 H   0  0  0  0  0  0  0  0  0  0  0  0
  -25.3716   -4.6399  -26.3127 H   0  0  0  0  0  0  0  0  0  0  0  0
  -22.2755   -5.0341  -23.3399 H   0  0  0  0  0  0  0  0  0  0  0  0
  -21.7567   -8.6514  -34.3699 H   0  0  0  0  0  0  0  0  0  0  0  0
  -27.0108   -4.1457  -24.5301 H   0  0  0  0  0  0  0  0  0  0  0  0
  -23.9247   -4.5386  -21.5667 H   0  0  0  0  0  0  0  0  0  0  0  0
  -20.4715   -3.9594  -33.3811 H   0  0  0  0  0  0  0  0  0  0  0  0
  -17.2381   -6.3335  -27.0504 H   0  0  0  0  0  0  0  0  0  0  0  0
  -18.3495   -2.7996  -24.8480 H   0  0  0  0  0  0  0  0  0  0  0  0
  -14.9025   -5.0740  -23.6775 H   0  0  0  0  0  0  0  0  0  0  0  0
  -21.3590   -6.0626  -30.0942 H   0  0  0  0  0  0  0  0  0  0  0  0
  -23.0714   -5.6824  -29.8181 H   0  0  0  0  0  0  0  0  0  0  0  0
  -19.1237   -5.7610  -28.4603 H   0  0  0  0  0  0  0  0  0  0  0  0
  -18.5328   -4.1431  -28.9505 H   0  0  0  0  0  0  0  0  0  0  0  0
  -19.8976   -2.4388  -26.8457 H   0  0  0  0  0  0  0  0  0  0  0  0
  -20.7577   -3.7189  -25.9268 H   0  0  0  0  0  0  0  0  0  0  0  0
  -21.7541   -2.4030  -28.9021 H   0  0  0  0  0  0  0  0  0  0  0  0
  -20.2119   -2.6884  -29.7567 H   0  0  0  0  0  0  0  0  0  0  0  0
  -21.3447   -6.1784  -27.7154 H   0  0  0  0  0  0  0  0  0  0  0  0
  -23.0771   -3.7423  -27.4460 H   0  0  0  0  0  0  0  0  0  0  0  0
  -23.8102   -5.3553  -27.7417 H   0  0  0  0  0  0  0  0  0  0  0  0
  -23.4223   -5.2544  -31.5886 H   0  0  0  0  0  0  0  0  0  0  0  0
  -23.7312   -2.9267  -32.9257 H   0  0  0  0  0  0  0  0  0  0  0  0
  -23.7476   -4.1340  -34.0250 H   0  0  0  0  0  0  0  0  0  0  0  0
  -21.9275   -5.6263  -25.6589 H   0  0  0  0  0  0  0  0  0  0  0  0
  -19.8653   -8.8036  -35.4781 H   0  0  0  0  0  0  0  0  0  0  0  0
  1  4  1  0  0  0  0
  1 11  2  0  0  0  0
  2  5  1  0  0  0  0
  2 13  2  0  0  0  0
  3  6  2  0  0  0  0
  3 13  1  0  0  0  0
  4 14  2  0  0  0  0
  5 15  2  0  0  0  0
  6 15  1  0  0  0  0
  7 11  1  0  0  0  0
  7 18  2  0  0  0  0
  8 12  2  0  0  0  0
  8 16  1  0  0  0  0
  9 12  1  0  0  0  0
  9 17  2  0  0  0  0
 10 16  2  0  0  0  0
 10 17  1  0  0  0  0
 11 27  1  0  0  0  0
 12 28  1  0  0  0  0
 13 31  1  0  0  0  0
 14 18  1  0  0  0  0
 14 33  1  0  0  0  0
 15 34  1  0  0  0  0
 16 35  1  0  0  0  0
 17 36  1  0  0  0  0
 18 37  1  0  0  0  0
 19 27  1  0  0  0  0
 19 29  1  0  0  0  0
 19 32  2  0  0  0  0
 20 24  1  0  0  0  0
 20 29  1  0  0  0  0
 21 25  1  0  0  0  0
 21 28  1  0  0  0  0
 22 25  1  0  0  0  0
 22 28  1  0  0  0  0
 23 25  1  0  0  0  0
 23 29  1  0  0  0  0
 24 25  1  0  0  0  0
 24 26  1  0  0  0  0
 26 31  1  0  0  0  0
 27 30  1  0  0  0  0
  1 38  1  0  0  0  0
  2 39  1  0  0  0  0
  3 40  1  0  0  0  0
  4 41  1  0  0  0  0
  5 42  1  0  0  0  0
  6 43  1  0  0  0  0
  7 44  1  0  0  0  0
  8 45  1  0  0  0  0
  9 46  1  0  0  0  0
 10 47  1  0  0  0  0
 20 48  1  0  0  0  0
 20 49  1  0  0  0  0
 21 50  1  0  0  0  0
 21 51  1  0  0  0  0
 22 52  1  0  0  0  0
 22 53  1  0  0  0  0
 23 54  1  0  0  0  0
 23 55  1  0  0  0  0
 24 56  1  0  0  0  0
 26 57  1  0  0  0  0
 26 58  1  0  0  0  0
 27 59  1  0  0  0  0
 30 60  1  0  0  0  0
 30 61  1  0  0  0  0
 31 62  1  0  0  0  0
 33 63  1  0  0  0  0
M  END
> <SMILES>
N[C@H](C(=O)N1CC(CNc2ccc(cc2)F)C2(C1)CN(C2)c1cc(cc(c1)F)F)c1ccc(c(c1)Cl)O

> <FORMATTED_ID>
H3D-009163

> <MOLFORMULA>
C27H26ClF3N4O2

> <Exact Mass>
530.17

> <XLogP>
3.78

> <TPSA_NOPS>
81.8

> <s_m_source_file>
ligprep_h3d.sdf

> <i_m_source_file_index>
5023

> <i_lp_mmshare_version>
55123

> <i_f3d_flags>
0

> <s_epik_input>
W2NIXTFjKENsKWMoW09IXSlbY0hdW2NIXWMxW0NASF0oW05IMl0pQyg9TylOKFtDSDJdMilbQ0gyXVtDQEhdKFtDSDJdW05IXWMzW2NIXVtjSF1jKEYpW2NIXVtjSF0zKUMyNFtDSDJdTihbQ0gyXTQpYzVbY0hdYyhGKVtjSF1jKEYpW2NIXTU=

> <s_epik_cmdline>
J2VwaWtfcHl0aG9uJywgJy1waHQnLCAnMC41JywgJy1waCcsICc3LjUnLCAnLXRuJywgJzgnLCAnLW1hJywgJzUwMCcsICctaW1hZScsICc8aW5maWxlLm1hZT4nLCAnLW9tYWUnLCAnPG91dGZpbGUubWFlPic=

> <r_lp_tautomer_probability>
1

> <r_epik_Ionization_Penalty>
0.107454

> <r_epik_Ionization_Penalty_Charging>
0

> <r_epik_Ionization_Penalty_Neutral>
0.107454

> <r_epik_State_Penalty>
-0

> <r_epik_Charging_Adjusted_Penalty>
0

> <i_epik_Tot_Q>
0

> <i_epik_Tot_abs_Q>
0

> <s_lp_Force_Field>
S-OPLS

> <r_lp_Energy>
35.3781

> <b_lp_Chiralities_Consistent>
1

> <s_lp_Variant>
ligprep_h3d.sdf:5023-1

> <ROCS_ShapeQuery>
_7L13

> <ROCS_TanimotoCombo>
0.708 

> <ROCS_ShapeTanimoto>
0.652 

> <ROCS_ColorTanimoto>
0.055 

> <ROCS_RefTversky>
0.794 

> <ROCS_RefColorTversky>
0.115 

> <ROCS_RefTverskyCombo>
0.910 

> <ROCS_FitTversky>
0.785 

> <ROCS_FitColorTversky>
0.096 

> <ROCS_FitTverskyCombo>
0.881 

> <ROCS_ColorScore>
-1.051

> <ROCS_Overlap>
1320.229

> <ROCS_Rank>
241                 

$$$$
ligprep_h3d.sdf:5133_1201
  -OEChem-08212117123D

 66 71  0     0  0  0  0  0  0999 V2000
  -21.3128   -6.6871  -33.3318 C   0  0  0  0  0  0  0  0  0  0  0  0
  -20.2322   -4.5344  -33.1446 C   0  0  0  0  0  0  0  0  0  0  0  0
  -20.4278   -7.0429  -34.3495 C   0  0  0  0  0  0  0  0  0  0  0  0
  -19.3471   -4.8901  -34.1624 C   0  0  0  0  0  0  0  0  0  0  0  0
  -23.6087   -3.9677  -27.7343 C   0  0  0  0  0  0  0  0  0  0  0  0
  -20.9318   -4.4863  -28.4635 C   0  0  0  0  0  0  0  0  0  0  0  0
  -15.2238   -6.1267  -25.9296 C   0  0  0  0  0  0  0  0  0  0  0  0
  -14.6733   -4.8781  -25.8039 C   0  0  0  0  0  0  0  0  0  0  0  0
  -22.6567   -4.2667  -26.7673 C   0  0  0  0  0  0  0  0  0  0  0  0
  -21.2150   -5.4328  -32.7294 C   0  0  0  0  0  0  0  0  0  0  0  0
  -21.3346   -4.5220  -27.1364 C   0  0  0  0  0  0  0  0  0  0  0  0
  -23.2175   -3.9283  -29.0741 C   0  0  0  0  0  0  0  0  0  0  0  0
  -21.8880   -4.1859  -29.4357 C   0  0  0  0  0  0  0  0  0  0  0  0
  -19.4450   -6.1444  -34.7648 C   0  0  0  0  0  0  0  0  0  0  0  0
  -16.8700   -4.6423  -25.8595 C   0  0  0  0  0  0  0  0  0  0  0  0
  -18.2757   -4.1552  -25.8671 C   0  0  0  0  0  0  0  0  0  0  0  0
  -18.8496   -6.5044  -26.0885 C   0  0  0  0  0  0  0  0  0  0  0  0
  -17.5683   -6.9184  -26.0787 C   0  0  0  0  0  0  0  0  0  0  0  0
  -19.2452   -5.0889  -25.9814 C   0  0  0  0  0  0  0  0  0  0  0  0
  -23.8467   -5.4811  -24.9039 C   0  0  0  0  0  0  0  0  0  0  0  0
  -23.3129   -3.0224  -24.6731 C   0  0  0  0  0  0  0  0  0  0  0  0
  -21.4036   -4.7229  -24.8039 C   0  0  0  0  0  0  0  0  0  0  0  0
  -24.1322   -5.5503  -23.4080 C   0  0  0  0  0  0  0  0  0  0  0  0
  -23.6020   -3.1093  -23.1789 C   0  0  0  0  0  0  0  0  0  0  0  0
  -22.8478   -4.3658  -25.2670 C   0  0  0  0  0  0  0  0  0  0  0  0
  -25.0258   -4.2484  -21.4800 C   0  0  0  0  0  0  0  0  0  0  0  0
  -24.3137   -2.2596  -30.3663 C   0  0  0  0  0  0  0  0  0  0  0  0
  -22.1662   -5.0497  -31.6339 C   0  0  0  0  0  0  0  0  0  0  0  0
  -16.5918   -5.9553  -25.9621 N   0  0  0  0  0  0  0  0  0  0  0  0
  -15.7143   -3.9801  -25.7628 N   0  3  0  0  0  0  0  0  0  0  0  0
  -20.5623   -4.7975  -26.0032 N   0  0  0  0  0  0  0  0  0  0  0  0
  -24.6098   -4.2031  -22.9248 N   0  3  0  0  0  0  0  0  0  0  0  0
  -24.1447   -3.6347  -30.0295 O   0  0  0  0  0  0  0  0  0  0  0  0
  -21.5138   -4.1447  -30.7465 O   0  0  0  0  0  0  0  0  0  0  0  0
  -18.5933   -6.4870  -35.7403 F   0  0  0  0  0  0  0  0  0  0  0  0
  -22.0757   -7.3936  -33.0155 H   0  0  0  0  0  0  0  0  0  0  0  0
  -20.1482   -3.5550  -32.6808 H   0  0  0  0  0  0  0  0  0  0  0  0
  -20.5034   -8.0195  -34.8181 H   0  0  0  0  0  0  0  0  0  0  0  0
  -18.5821   -4.1908  -34.4863 H   0  0  0  0  0  0  0  0  0  0  0  0
  -24.6390   -3.7677  -27.4565 H   0  0  0  0  0  0  0  0  0  0  0  0
  -19.9063   -4.6829  -28.7568 H   0  0  0  0  0  0  0  0  0  0  0  0
  -14.8269   -7.1217  -26.0010 H   0  0  0  0  0  0  0  0  0  0  0  0
  -13.6782   -4.4853  -25.7361 H   0  0  0  0  0  0  0  0  0  0  0  0
  -18.4764   -3.0943  -25.7834 H   0  0  0  0  0  0  0  0  0  0  0  0
  -19.6423   -7.2418  -26.1796 H   0  0  0  0  0  0  0  0  0  0  0  0
  -17.2674   -7.9550  -26.1569 H   0  0  0  0  0  0  0  0  0  0  0  0
  -23.4760   -6.4563  -25.2459 H   0  0  0  0  0  0  0  0  0  0  0  0
  -24.7971   -5.3219  -25.4311 H   0  0  0  0  0  0  0  0  0  0  0  0
  -24.2237   -2.6802  -25.1830 H   0  0  0  0  0  0  0  0  0  0  0  0
  -22.5612   -2.2422  -24.8504 H   0  0  0  0  0  0  0  0  0  0  0  0
  -20.9961   -3.9663  -24.1224 H   0  0  0  0  0  0  0  0  0  0  0  0
  -21.3710   -5.6849  -24.2782 H   0  0  0  0  0  0  0  0  0  0  0  0
  -24.9302   -6.2723  -23.2054 H   0  0  0  0  0  0  0  0  0  0  0  0
  -23.2456   -5.8189  -22.8243 H   0  0  0  0  0  0  0  0  0  0  0  0
  -22.7065   -3.3379  -22.5916 H   0  0  0  0  0  0  0  0  0  0  0  0
  -24.0395   -2.1717  -22.8203 H   0  0  0  0  0  0  0  0  0  0  0  0
  -24.1439   -4.4957  -20.8862 H   0  0  0  0  0  0  0  0  0  0  0  0
  -25.4152   -3.2640  -21.2134 H   0  0  0  0  0  0  0  0  0  0  0  0
  -25.7955   -5.0158  -21.3779 H   0  0  0  0  0  0  0  0  0  0  0  0
  -25.0809   -2.1645  -31.1386 H   0  0  0  0  0  0  0  0  0  0  0  0
  -23.3657   -1.8529  -30.7274 H   0  0  0  0  0  0  0  0  0  0  0  0
  -24.6272   -1.7112  -29.4749 H   0  0  0  0  0  0  0  0  0  0  0  0
  -23.0604   -4.5669  -32.0426 H   0  0  0  0  0  0  0  0  0  0  0  0
  -22.4878   -5.9338  -31.0729 H   0  0  0  0  0  0  0  0  0  0  0  0
  -15.6190   -2.9722  -25.6734 H   0  0  0  0  0  0  0  0  0  0  0  0
  -25.4559   -3.9688  -23.4623 H   0  0  0  0  0  0  0  0  0  0  0  0
  1  3  1  0  0  0  0
  1 10  2  0  0  0  0
  2  4  2  0  0  0  0
  2 10  1  0  0  0  0
  3 14  2  0  0  0  0
  4 14  1  0  0  0  0
  5  9  1  0  0  0  0
  5 12  2  0  0  0  0
  6 11  1  0  0  0  0
  6 13  2  0  0  0  0
  7  8  2  0  0  0  0
  7 29  1  0  0  0  0
  8 30  1  0  0  0  0
  9 11  2  0  0  0  0
  9 25  1  0  0  0  0
 10 28  1  0  0  0  0
 11 31  1  0  0  0  0
 12 13  1  0  0  0  0
 12 33  1  0  0  0  0
 13 34  1  0  0  0  0
 14 35  1  0  0  0  0
 15 16  1  0  0  0  0
 15 29  1  0  0  0  0
 15 30  2  0  0  0  0
 16 19  2  0  0  0  0
 17 18  2  0  0  0  0
 17 19  1  0  0  0  0
 18 29  1  0  0  0  0
 19 31  1  0  0  0  0
 20 23  1  0  0  0  0
 20 25  1  0  0  0  0
 21 24  1  0  0  0  0
 21 25  1  0  0  0  0
 22 25  1  0  0  0  0
 22 31  1  0  0  0  0
 23 32  1  0  0  0  0
 24 32  1  0  0  0  0
 26 32  1  0  0  0  0
 27 33  1  0  0  0  0
 28 34  1  0  0  0  0
  1 36  1  0  0  0  0
  2 37  1  0  0  0  0
  3 38  1  0  0  0  0
  4 39  1  0  0  0  0
  5 40  1  0  0  0  0
  6 41  1  0  0  0  0
  7 42  1  0  0  0  0
  8 43  1  0  0  0  0
 16 44  1  0  0  0  0
 17 45  1  0  0  0  0
 18 46  1  0  0  0  0
 20 47  1  0  0  0  0
 20 48  1  0  0  0  0
 21 49  1  0  0  0  0
 21 50  1  0  0  0  0
 22 51  1  0  0  0  0
 22 52  1  0  0  0  0
 23 53  1  0  0  0  0
 23 54  1  0  0  0  0
 24 55  1  0  0  0  0
 24 56  1  0  0  0  0
 26 57  1  0  0  0  0
 26 58  1  0  0  0  0
 26 59  1  0  0  0  0
 27 60  1  0  0  0  0
 27 61  1  0  0  0  0
 27 62  1  0  0  0  0
 28 63  1  0  0  0  0
 28 64  1  0  0  0  0
 30 65  1  0  0  0  0
 32 66  1  0  0  0  0
M  CHG  2  30   1  32   1
M  END
> <SMILES>
COc1cc2c(cc1OCc1ccc(cc1)F)N(CC12CCN(C)CC1)c1ccn2ccnc2c1

> <FORMATTED_ID>
H3D-013385

> <MOLFORMULA>
C28H29FN4O2

> <Exact Mass>
472.23

> <XLogP>
6.17

> <TPSA_NOPS>
42.2

> <s_m_source_file>
ligprep_h3d.sdf

> <i_m_source_file_index>
5133

> <i_lp_mmshare_version>
55123

> <i_f3d_flags>
0

> <s_epik_input>
W2NIXTFbY0hdYyhGKVtjSF1bY0hdYzFbQ0gyXU9jKGMoW2NIXTIpT1tDSDNdKVtjSF1jKGMyQzM0W0NIMl1bQ0gyXU4oW0NIM10pW0NIMl1bQ0gyXTQpTihbQ0gyXTMpYyhbY0hdW2NIXTUpW2NIXWMobjU2KW5bY0hdW2NIXTY=

> <s_epik_cmdline>
J2VwaWtfcHl0aG9uJywgJy1waHQnLCAnMC41JywgJy1waCcsICc3LjUnLCAnLXRuJywgJzgnLCAnLW1hJywgJzUwMCcsICctaW1hZScsICc8aW5maWxlLm1hZT4nLCAnLW9tYWUnLCAnPG91dGZpbGUubWFlPic=

> <r_lp_tautomer_probability>
1

> <r_epik_Ionization_Penalty>
0.405137

> <r_epik_Ionization_Penalty_Charging>
0.00813204

> <r_epik_Ionization_Penalty_Neutral>
0.397005

> <r_epik_State_Penalty>
0.396099

> <r_epik_Charging_Adjusted_Penalty>
0.404231

> <i_epik_Tot_Q>
2

> <i_epik_Tot_abs_Q>
2

> <s_lp_Force_Field>
S-OPLS

> <r_lp_Energy>
76.5599

> <b_lp_Chiralities_Consistent>
1

> <s_lp_Variant>
ligprep_h3d.sdf:5133-1

> <ROCS_ShapeQuery>
_7L13

> <ROCS_TanimotoCombo>
0.763 

> <ROCS_ShapeTanimoto>
0.667 

> <ROCS_ColorTanimoto>
0.096 

> <ROCS_RefTversky>
0.794 

> <ROCS_RefColorTversky>
0.201 

> <ROCS_RefTverskyCombo>
0.995 

> <ROCS_FitTversky>
0.806 

> <ROCS_FitColorTversky>
0.155 

> <ROCS_FitTverskyCombo>
0.961 

> <ROCS_ColorScore>
-1.839

> <ROCS_Overlap>
1318.031

> <ROCS_Rank>
242                 

$$$$
ligprep_h3d.sdf:4669_1708
  -OEChem-08212117123D

 61 65  0     1  0  0  0  0  0999 V2000
  -15.6692   -4.6487  -24.2483 C   0  0  0  0  0  0  0  0  0  0  0  0
  -25.5819   -4.8443  -23.0151 C   0  0  0  0  0  0  0  0  0  0  0  0
  -15.8527   -3.6400  -25.1941 C   0  0  0  0  0  0  0  0  0  0  0  0
  -16.5653   -5.7157  -24.1839 C   0  0  0  0  0  0  0  0  0  0  0  0
  -25.8553   -5.0404  -24.3688 C   0  0  0  0  0  0  0  0  0  0  0  0
  -24.3331   -4.3662  -22.6179 C   0  0  0  0  0  0  0  0  0  0  0  0
  -21.0480   -7.0720  -34.3124 C   0  0  0  0  0  0  0  0  0  0  0  0
  -19.9935   -5.1055  -33.3861 C   0  0  0  0  0  0  0  0  0  0  0  0
  -16.9323   -3.6982  -26.0753 C   0  0  0  0  0  0  0  0  0  0  0  0
  -17.6449   -5.7739  -25.0651 C   0  0  0  0  0  0  0  0  0  0  0  0
  -24.8800   -4.7585  -25.3253 C   0  0  0  0  0  0  0  0  0  0  0  0
  -23.3578   -4.0844  -23.5744 C   0  0  0  0  0  0  0  0  0  0  0  0
  -20.2166   -6.9917  -35.4295 C   0  0  0  0  0  0  0  0  0  0  0  0
  -19.1621   -5.0252  -34.5032 C   0  0  0  0  0  0  0  0  0  0  0  0
  -20.9365   -6.1289  -33.2907 C   0  0  0  0  0  0  0  0  0  0  0  0
  -17.8285   -4.7652  -26.0109 C   0  0  0  0  0  0  0  0  0  0  0  0
  -23.6312   -4.2805  -24.9281 C   0  0  0  0  0  0  0  0  0  0  0  0
  -19.2736   -5.9683  -35.5249 C   0  0  0  0  0  0  0  0  0  0  0  0
  -22.1108   -4.8600  -31.4913 C   0  0  0  0  0  0  0  0  0  0  0  0
  -21.8706   -3.4122  -29.4920 C   0  0  0  0  0  0  0  0  0  0  0  0
  -19.0746   -4.3432  -28.2261 C   0  0  0  0  0  0  0  0  0  0  0  0
  -20.0812   -5.6377  -26.9069 C   0  0  0  0  0  0  0  0  0  0  0  0
  -20.9697   -5.6665  -29.3765 C   0  0  0  0  0  0  0  0  0  0  0  0
  -21.5718   -3.7134  -28.0257 C   0  0  2  0  0  0  0  0  0  0  0  0
  -20.5439   -4.8496  -28.1576 C   0  0  0  0  0  0  0  0  0  0  0  0
  -21.8299   -6.2155  -32.0893 C   0  0  0  0  0  0  0  0  0  0  0  0
  -22.8319   -4.1632  -27.2888 C   0  0  0  0  0  0  0  0  0  0  0  0
  -18.9137   -4.8241  -26.8966 N   0  0  0  0  0  0  0  0  0  0  0  0
  -21.6708   -4.6759  -30.1902 N   0  0  0  0  0  0  0  0  0  0  0  0
  -22.6542   -3.9981  -25.8857 N   0  0  0  0  0  0  0  0  0  0  0  0
  -22.6920   -3.9969  -32.1515 O   0  0  0  0  0  0  0  0  0  0  0  0
  -18.4616   -5.8908  -36.6145 O   0  0  0  0  0  0  0  0  0  0  0  0
  -14.8285   -4.6031  -23.5620 H   0  0  0  0  0  0  0  0  0  0  0  0
  -26.3414   -5.0640  -22.2703 H   0  0  0  0  0  0  0  0  0  0  0  0
  -15.1551   -2.8094  -25.2441 H   0  0  0  0  0  0  0  0  0  0  0  0
  -16.4222   -6.5012  -23.4473 H   0  0  0  0  0  0  0  0  0  0  0  0
  -26.8274   -5.4126  -24.6778 H   0  0  0  0  0  0  0  0  0  0  0  0
  -24.1204   -4.2136  -21.5637 H   0  0  0  0  0  0  0  0  0  0  0  0
  -21.7799   -7.8726  -34.2465 H   0  0  0  0  0  0  0  0  0  0  0  0
  -19.8996   -4.3662  -32.5949 H   0  0  0  0  0  0  0  0  0  0  0  0
  -17.0665   -2.9071  -26.8085 H   0  0  0  0  0  0  0  0  0  0  0  0
  -18.3367   -6.6104  -25.0057 H   0  0  0  0  0  0  0  0  0  0  0  0
  -25.1030   -4.9149  -26.3775 H   0  0  0  0  0  0  0  0  0  0  0  0
  -22.3883   -3.7121  -23.2531 H   0  0  0  0  0  0  0  0  0  0  0  0
  -20.3081   -7.7296  -36.2221 H   0  0  0  0  0  0  0  0  0  0  0  0
  -18.4294   -4.2260  -34.5714 H   0  0  0  0  0  0  0  0  0  0  0  0
  -22.8739   -3.0153  -29.6745 H   0  0  0  0  0  0  0  0  0  0  0  0
  -21.1403   -2.7050  -29.9021 H   0  0  0  0  0  0  0  0  0  0  0  0
  -18.4131   -4.8350  -28.9453 H   0  0  0  0  0  0  0  0  0  0  0  0
  -18.9485   -3.2562  -28.2919 H   0  0  0  0  0  0  0  0  0  0  0  0
  -20.6914   -5.4976  -26.0076 H   0  0  0  0  0  0  0  0  0  0  0  0
  -19.8647   -6.6996  -27.0538 H   0  0  0  0  0  0  0  0  0  0  0  0
  -20.1377   -6.1102  -29.9327 H   0  0  0  0  0  0  0  0  0  0  0  0
  -21.6875   -6.4519  -29.1131 H   0  0  0  0  0  0  0  0  0  0  0  0
  -21.1586   -2.8341  -27.5214 H   0  0  0  0  0  0  0  0  0  0  0  0
  -22.7800   -6.6799  -32.3591 H   0  0  0  0  0  0  0  0  0  0  0  0
  -21.3830   -6.8458  -31.3189 H   0  0  0  0  0  0  0  0  0  0  0  0
  -23.6529   -3.5448  -27.6473 H   0  0  0  0  0  0  0  0  0  0  0  0
  -22.9922   -5.2114  -27.5348 H   0  0  0  0  0  0  0  0  0  0  0  0
  -21.7573   -3.6515  -25.5355 H   0  0  0  0  0  0  0  0  0  0  0  0
  -17.8638   -5.1304  -36.5350 H   0  0  0  0  0  0  0  0  0  0  0  0
  1  3  2  0  0  0  0
  1  4  1  0  0  0  0
  2  5  2  0  0  0  0
  2  6  1  0  0  0  0
  3  9  1  0  0  0  0
  4 10  2  0  0  0  0
  5 11  1  0  0  0  0
  6 12  2  0  0  0  0
  7 13  1  0  0  0  0
  7 15  2  0  0  0  0
  8 14  2  0  0  0  0
  8 15  1  0  0  0  0
  9 16  2  0  0  0  0
 10 16  1  0  0  0  0
 11 17  2  0  0  0  0
 12 17  1  0  0  0  0
 13 18  2  0  0  0  0
 14 18  1  0  0  0  0
 15 26  1  0  0  0  0
 16 28  1  0  0  0  0
 17 30  1  0  0  0  0
 18 32  1  0  0  0  0
 19 26  1  0  0  0  0
 19 29  1  0  0  0  0
 19 31  2  0  0  0  0
 20 24  1  0  0  0  0
 20 29  1  0  0  0  0
 21 25  1  0  0  0  0
 21 28  1  0  0  0  0
 22 25  1  0  0  0  0
 22 28  1  0  0  0  0
 23 25  1  0  0  0  0
 23 29  1  0  0  0  0
 24 25  1  0  0  0  0
 24 27  1  0  0  0  0
 27 30  1  0  0  0  0
  1 33  1  0  0  0  0
  2 34  1  0  0  0  0
  3 35  1  0  0  0  0
  4 36  1  0  0  0  0
  5 37  1  0  0  0  0
  6 38  1  0  0  0  0
  7 39  1  0  0  0  0
  8 40  1  0  0  0  0
  9 41  1  0  0  0  0
 10 42  1  0  0  0  0
 11 43  1  0  0  0  0
 12 44  1  0  0  0  0
 13 45  1  0  0  0  0
 14 46  1  0  0  0  0
 20 47  1  0  0  0  0
 20 48  1  0  0  0  0
 21 49  1  0  0  0  0
 21 50  1  0  0  0  0
 22 51  1  0  0  0  0
 22 52  1  0  0  0  0
 23 53  1  0  0  0  0
 23 54  1  0  0  0  0
 24 55  1  0  0  0  0
 26 56  1  0  0  0  0
 26 57  1  0  0  0  0
 27 58  1  0  0  0  0
 27 59  1  0  0  0  0
 30 60  1  0  0  0  0
 32 61  1  0  0  0  0
M  END
> <SMILES>
Oc1ccc(cc1)CC(=O)N1C[C@@H](CNc2ccccc2)C2(C1)CN(C2)c1ccccc1

> <FORMATTED_ID>
H3D-005823

> <MOLFORMULA>
C27H29N3O2

> <Exact Mass>
427.23

> <XLogP>
3.82

> <TPSA_NOPS>
55.8

> <s_m_source_file>
ligprep_h3d.sdf

> <i_m_source_file_index>
4669

> <i_lp_mmshare_version>
55123

> <i_f3d_flags>
0

> <s_epik_input>
W09IXWMxW2NIXVtjSF1jKFtjSF1bY0hdMSlbQ0gyXUMoPU8pTihbQ0gyXTIpW0NIMl1bQ0BASF0oW0NIMl1bTkhdYzNbY0hdW2NIXVtjSF1bY0hdW2NIXTMpQzI0W0NIMl1OKFtDSDJdNCljNVtjSF1bY0hdW2NIXVtjSF1bY0hdNQ==

> <s_epik_cmdline>
J2VwaWtfcHl0aG9uJywgJy1waHQnLCAnMC41JywgJy1waCcsICc3LjUnLCAnLXRuJywgJzgnLCAnLW1hJywgJzUwMCcsICctaW1hZScsICc8aW5maWxlLm1hZT4nLCAnLW9tYWUnLCAnPG91dGZpbGUubWFlPic=

> <r_lp_tautomer_probability>
1

> <r_epik_Ionization_Penalty>
0.00593126

> <r_epik_Ionization_Penalty_Charging>
0

> <r_epik_Ionization_Penalty_Neutral>
0.00593126

> <r_epik_State_Penalty>
-0

> <r_epik_Charging_Adjusted_Penalty>
0

> <i_epik_Tot_Q>
0

> <i_epik_Tot_abs_Q>
0

> <s_lp_Force_Field>
S-OPLS

> <r_lp_Energy>
44.4224

> <b_lp_Chiralities_Consistent>
1

> <s_lp_Variant>
ligprep_h3d.sdf:4669-1

> <ROCS_ShapeQuery>
_7L13

> <ROCS_TanimotoCombo>
0.786 

> <ROCS_ShapeTanimoto>
0.724 

> <ROCS_ColorTanimoto>
0.061 

> <ROCS_RefTversky>
0.794 

> <ROCS_RefColorTversky>
0.115 

> <ROCS_RefTverskyCombo>
0.910 

> <ROCS_FitTversky>
0.892 

> <ROCS_FitColorTversky>
0.115 

> <ROCS_FitTverskyCombo>
1.007 

> <ROCS_ColorScore>
-1.039

> <ROCS_Overlap>
1311.051

> <ROCS_Rank>
243                 

$$$$
ligprep_h3d.sdf:1330_372
  -OEChem-08212117123D

 66 70  0     1  0  0  0  0  0999 V2000
  -20.1107   -3.9284  -32.2645 C   0  0  0  0  0  0  0  0  0  0  0  0
  -20.8633   -6.2199  -32.1234 C   0  0  0  0  0  0  0  0  0  0  0  0
  -19.5977   -4.1752  -33.5378 C   0  0  0  0  0  0  0  0  0  0  0  0
  -20.3503   -6.4667  -33.3968 C   0  0  0  0  0  0  0  0  0  0  0  0
  -17.1346   -6.4791  -26.6014 C   0  0  0  0  0  0  0  0  0  0  0  0
  -23.1119   -4.0041  -28.8215 C   0  0  0  0  0  0  0  0  0  0  0  0
  -20.8014   -4.5526  -25.4111 C   0  0  0  0  0  0  0  0  0  0  0  0
  -16.8397   -5.1050  -26.6839 C   0  0  0  0  0  0  0  0  0  0  0  0
  -21.0198   -4.6293  -27.8176 C   0  0  0  0  0  0  0  0  0  0  0  0
  -20.7434   -4.9507  -31.5572 C   0  0  0  0  0  0  0  0  0  0  0  0
  -21.2778   -4.6935  -30.2302 C   0  0  0  0  0  0  0  0  0  0  0  0
  -19.7175   -5.4444  -34.1040 C   0  0  0  0  0  0  0  0  0  0  0  0
  -22.5887   -4.2544  -30.0925 C   0  0  0  0  0  0  0  0  0  0  0  0
  -20.4933   -4.8811  -29.0959 C   0  0  0  0  0  0  0  0  0  0  0  0
  -22.3500   -4.1835  -27.6702 C   0  0  0  0  0  0  0  0  0  0  0  0
  -20.2524   -4.8098  -26.6590 C   0  0  0  0  0  0  0  0  0  0  0  0
  -22.1112   -4.1198  -25.3671 C   0  0  0  0  0  0  0  0  0  0  0  0
  -18.5068   -6.5352  -26.5813 C   0  0  0  0  0  0  0  0  0  0  0  0
  -18.6020   -7.8951  -36.0491 C   0  0  0  0  0  0  0  0  0  0  0  0
  -22.7473   -3.8340  -24.0926 C   0  0  0  0  0  0  0  0  0  0  0  0
  -20.1609   -6.2831  -36.4787 C   0  0  0  0  0  0  0  0  0  0  0  0
  -19.1611   -5.7121  -35.4847 C   0  0  2  0  0  0  0  0  0  0  0  0
  -23.4745   -4.0353  -31.2778 C   0  0  0  0  0  0  0  0  0  0  0  0
  -19.0857   -5.3573  -29.3229 C   0  0  0  0  0  0  0  0  0  0  0  0
  -19.4190   -7.6931  -26.5038 C   0  0  0  0  0  0  0  0  0  0  0  0
  -26.5260   -5.5998  -23.4335 C   0  0  0  0  0  0  0  0  0  0  0  0
  -24.9098   -3.7706  -22.8235 C   0  0  0  0  0  0  0  0  0  0  0  0
  -25.5948   -5.0536  -22.3595 C   0  0  2  0  0  0  0  0  0  0  0  0
  -17.9365   -4.3433  -26.7142 N   0  0  0  0  0  0  0  0  0  0  0  0
  -22.8856   -3.9330  -26.4605 N   0  0  0  0  0  0  0  0  0  0  0  0
  -18.9338   -5.2418  -26.6506 N   0  0  0  0  0  0  0  0  0  0  0  0
  -18.1562   -6.7333  -35.4591 N   0  0  0  0  0  0  0  0  0  0  0  0
  -24.1313   -4.0322  -24.0128 N   0  0  0  0  0  0  0  0  0  0  0  0
  -18.0061   -8.9611  -36.1103 O   0  0  0  0  0  0  0  0  0  0  0  0
  -22.0779   -3.4124  -23.1318 O   0  0  0  0  0  0  0  0  0  0  0  0
  -19.8558   -7.6879  -36.5655 O   0  0  0  0  0  0  0  0  0  0  0  0
  -24.5933   -6.0311  -22.0840 O   0  0  0  0  0  0  0  0  0  0  0  0
  -20.0088   -2.9339  -31.8364 H   0  0  0  0  0  0  0  0  0  0  0  0
  -21.3544   -7.0269  -31.5849 H   0  0  0  0  0  0  0  0  0  0  0  0
  -19.1053   -3.3731  -34.0812 H   0  0  0  0  0  0  0  0  0  0  0  0
  -20.4486   -7.4584  -33.8306 H   0  0  0  0  0  0  0  0  0  0  0  0
  -16.4466   -7.3110  -26.5626 H   0  0  0  0  0  0  0  0  0  0  0  0
  -24.1415   -3.6603  -28.7285 H   0  0  0  0  0  0  0  0  0  0  0  0
  -20.2285   -4.6843  -24.4973 H   0  0  0  0  0  0  0  0  0  0  0  0
  -15.8714   -4.6272  -26.7233 H   0  0  0  0  0  0  0  0  0  0  0  0
  -21.2067   -6.1647  -36.1784 H   0  0  0  0  0  0  0  0  0  0  0  0
  -20.0245   -5.8583  -37.4792 H   0  0  0  0  0  0  0  0  0  0  0  0
  -18.7041   -4.7663  -35.8600 H   0  0  0  0  0  0  0  0  0  0  0  0
  -23.3768   -3.0050  -31.6367 H   0  0  0  0  0  0  0  0  0  0  0  0
  -23.2153   -4.7183  -32.0950 H   0  0  0  0  0  0  0  0  0  0  0  0
  -24.5247   -4.2214  -31.0245 H   0  0  0  0  0  0  0  0  0  0  0  0
  -19.0594   -6.4499  -29.3187 H   0  0  0  0  0  0  0  0  0  0  0  0
  -18.7046   -4.9943  -30.2814 H   0  0  0  0  0  0  0  0  0  0  0  0
  -18.4194   -4.9805  -28.5419 H   0  0  0  0  0  0  0  0  0  0  0  0
  -19.6519   -7.9460  -25.4565 H   0  0  0  0  0  0  0  0  0  0  0  0
  -20.3739   -7.5030  -27.0230 H   0  0  0  0  0  0  0  0  0  0  0  0
  -18.9882   -8.5917  -26.9779 H   0  0  0  0  0  0  0  0  0  0  0  0
  -25.9890   -5.7859  -24.3686 H   0  0  0  0  0  0  0  0  0  0  0  0
  -26.9974   -6.5331  -23.1060 H   0  0  0  0  0  0  0  0  0  0  0  0
  -27.3371   -4.8915  -23.6341 H   0  0  0  0  0  0  0  0  0  0  0  0
  -25.6493   -2.9961  -23.0537 H   0  0  0  0  0  0  0  0  0  0  0  0
  -24.2407   -3.3866  -22.0466 H   0  0  0  0  0  0  0  0  0  0  0  0
  -26.1574   -4.8765  -21.4355 H   0  0  0  0  0  0  0  0  0  0  0  0
  -17.2557   -6.6413  -34.9991 H   0  0  0  0  0  0  0  0  0  0  0  0
  -24.6395   -4.3169  -24.8437 H   0  0  0  0  0  0  0  0  0  0  0  0
  -25.0595   -6.8235  -21.7766 H   0  0  0  0  0  0  0  0  0  0  0  0
  1  3  1  0  0  0  0
  1 10  2  0  0  0  0
  2  4  2  0  0  0  0
  2 10  1  0  0  0  0
  3 12  2  0  0  0  0
  4 12  1  0  0  0  0
  5  8  1  0  0  0  0
  5 18  2  0  0  0  0
  6 13  2  0  0  0  0
  6 15  1  0  0  0  0
  7 16  1  0  0  0  0
  7 17  2  0  0  0  0
  8 29  2  0  0  0  0
  9 14  1  0  0  0  0
  9 15  1  0  0  0  0
  9 16  2  0  0  0  0
 10 11  1  0  0  0  0
 11 13  1  0  0  0  0
 11 14  2  0  0  0  0
 12 22  1  0  0  0  0
 13 23  1  0  0  0  0
 14 24  1  0  0  0  0
 15 30  2  0  0  0  0
 16 31  1  0  0  0  0
 17 20  1  0  0  0  0
 17 30  1  0  0  0  0
 18 25  1  0  0  0  0
 18 31  1  0  0  0  0
 19 32  1  0  0  0  0
 19 34  2  0  0  0  0
 19 36  1  0  0  0  0
 20 33  1  0  0  0  0
 20 35  2  0  0  0  0
 21 22  1  0  0  0  0
 21 36  1  0  0  0  0
 22 32  1  0  0  0  0
 26 28  1  0  0  0  0
 27 28  1  0  0  0  0
 27 33  1  0  0  0  0
 28 37  1  0  0  0  0
 29 31  1  0  0  0  0
  1 38  1  0  0  0  0
  2 39  1  0  0  0  0
  3 40  1  0  0  0  0
  4 41  1  0  0  0  0
  5 42  1  0  0  0  0
  6 43  1  0  0  0  0
  7 44  1  0  0  0  0
  8 45  1  0  0  0  0
 21 46  1  0  0  0  0
 21 47  1  0  0  0  0
 22 48  1  0  0  0  0
 23 49  1  0  0  0  0
 23 50  1  0  0  0  0
 23 51  1  0  0  0  0
 24 52  1  0  0  0  0
 24 53  1  0  0  0  0
 24 54  1  0  0  0  0
 25 55  1  0  0  0  0
 25 56  1  0  0  0  0
 25 57  1  0  0  0  0
 26 58  1  0  0  0  0
 26 59  1  0  0  0  0
 26 60  1  0  0  0  0
 27 61  1  0  0  0  0
 27 62  1  0  0  0  0
 28 63  1  0  0  0  0
 32 64  1  0  0  0  0
 33 65  1  0  0  0  0
 37 66  1  0  0  0  0
M  END
> <SMILES>
C[C@@H](O)CNC(=O)c1cc(c2c(c(c(cc2n1)C)-c1ccc(cc1)C1COC(=O)N1)C)-n1nccc1C

> <FORMATTED_ID>
H3D-009064

> <MOLFORMULA>
C28H29N5O4

> <Exact Mass>
499.22

> <XLogP>
3.28

> <TPSA_NOPS>
118.4

> <s_m_source_file>
ligprep_h3d.sdf

> <i_m_source_file_index>
1330

> <i_lp_mmshare_version>
55123

> <i_f3d_flags>
0

> <s_epik_input>
W0NIM11jMVtjSF1bY0hdbm4xLWMyW2NIXWMoQyg9TylbTkhdW0NIMl1bQ0BASF0oW0NIM10pW09IXSluYyhjMjMpW2NIXWMoW0NIM10pYyhjM1tDSDNdKS1jNFtjSF1bY0hdYyhbY0hdW2NIXTQpW0NAQEhdNVtDSDJdT0MoPU8pW05IXTU=

> <s_epik_cmdline>
J2VwaWtfcHl0aG9uJywgJy1waHQnLCAnMC41JywgJy1waCcsICc3LjUnLCAnLXRuJywgJzgnLCAnLW1hJywgJzUwMCcsICctaW1hZScsICc8aW5maWxlLm1hZT4nLCAnLW9tYWUnLCAnPG91dGZpbGUubWFlPic=

> <r_lp_tautomer_probability>
1

> <r_epik_Ionization_Penalty>
2.00194e-05

> <r_epik_Ionization_Penalty_Charging>
0

> <r_epik_Ionization_Penalty_Neutral>
2.00194e-05

> <r_epik_State_Penalty>
-0

> <r_epik_Charging_Adjusted_Penalty>
0

> <i_epik_Tot_Q>
0

> <i_epik_Tot_abs_Q>
0

> <s_epik_Chemistry_Notes>
This compound has an ester and may undergo hydrolysis at high or low pH.

> <s_lp_Force_Field>
S-OPLS

> <r_lp_Energy>
38.5919

> <b_lp_Chiralities_Consistent>
1

> <s_lp_Variant>
ligprep_h3d.sdf:1330-1

> <ROCS_ShapeQuery>
_7L13

> <ROCS_TanimotoCombo>
0.741 

> <ROCS_ShapeTanimoto>
0.639 

> <ROCS_ColorTanimoto>
0.102 

> <ROCS_RefTversky>
0.794 

> <ROCS_RefColorTversky>
0.221 

> <ROCS_RefTverskyCombo>
1.015 

> <ROCS_FitTversky>
0.766 

> <ROCS_FitColorTversky>
0.158 

> <ROCS_FitTverskyCombo>
0.924 

> <ROCS_ColorScore>
-2.029

> <ROCS_Overlap>
1321.540

> <ROCS_Rank>
244                 

$$$$
ligprep_h3d.sdf:2457_1896
  -OEChem-08212117123D

 60 64  0     0  0  0  0  0  0999 V2000
  -19.1751   -3.2487  -23.7478 C   0  0  0  0  0  0  0  0  0  0  0  0
  -25.7343   -4.4627  -23.4442 C   0  0  0  0  0  0  0  0  0  0  0  0
  -25.8274   -4.9396  -24.7476 C   0  0  0  0  0  0  0  0  0  0  0  0
  -19.2634   -5.4240  -35.4203 C   0  0  0  0  0  0  0  0  0  0  0  0
  -20.7110   -6.9147  -34.1876 C   0  0  0  0  0  0  0  0  0  0  0  0
  -24.5166   -3.9958  -22.9469 C   0  0  0  0  0  0  0  0  0  0  0  0
  -24.7142   -4.9519  -25.5973 C   0  0  0  0  0  0  0  0  0  0  0  0
  -18.7113   -6.5151  -36.0914 C   0  0  0  0  0  0  0  0  0  0  0  0
  -20.1590   -8.0057  -34.8588 C   0  0  0  0  0  0  0  0  0  0  0  0
  -20.2632   -5.6238  -34.4683 C   0  0  0  0  0  0  0  0  0  0  0  0
  -23.3881   -4.0065  -23.7868 C   0  0  0  0  0  0  0  0  0  0  0  0
  -23.4955   -4.4600  -25.1028 C   0  0  0  0  0  0  0  0  0  0  0  0
  -19.1592   -7.8059  -35.8107 C   0  0  0  0  0  0  0  0  0  0  0  0
  -21.4099   -3.8501  -24.5900 C   0  0  0  0  0  0  0  0  0  0  0  0
  -20.3829   -4.3674  -27.1309 C   0  0  0  0  0  0  0  0  0  0  0  0
  -20.0068   -3.6807  -24.8227 C   0  0  0  0  0  0  0  0  0  0  0  0
  -19.5005   -3.9412  -26.0494 C   0  0  0  0  0  0  0  0  0  0  0  0
  -21.7078   -4.5366  -26.9398 C   0  0  0  0  0  0  0  0  0  0  0  0
  -23.6879   -4.6201  -30.1120 C   0  0  0  0  0  0  0  0  0  0  0  0
  -21.3090   -3.8357  -29.8017 C   0  0  0  0  0  0  0  0  0  0  0  0
  -23.7905   -3.7832  -31.3793 C   0  0  0  0  0  0  0  0  0  0  0  0
  -21.4259   -3.0039  -31.0713 C   0  0  0  0  0  0  0  0  0  0  0  0
  -22.6679   -4.0413  -29.1292 C   0  0  0  0  0  0  0  0  0  0  0  0
  -20.8579   -4.4495  -33.7463 C   0  0  0  0  0  0  0  0  0  0  0  0
  -21.9383   -4.8281  -32.7382 C   0  0  0  0  0  0  0  0  0  0  0  0
  -18.0516   -3.8188  -26.4407 C   0  0  0  0  0  0  0  0  0  0  0  0
  -18.4987   -2.8974  -22.8732 N   0  0  0  0  0  0  0  0  0  0  0  0
  -22.1071   -3.6338  -23.4950 N   0  0  0  0  0  0  0  0  0  0  0  0
  -22.2182   -4.3049  -25.6417 N   0  0  0  0  0  0  0  0  0  0  0  0
  -22.5407   -4.8871  -27.9664 N   0  0  0  0  0  0  0  0  0  0  0  0
  -22.4356   -3.6037  -32.0183 N   0  3  0  0  0  0  0  0  0  0  0  0
  -18.6213   -8.8703  -36.4667 O   0  0  0  0  0  0  0  0  0  0  0  0
  -17.8818   -4.1375  -27.7370 F   0  0  0  0  0  0  0  0  0  0  0  0
  -17.6136   -2.5596  -26.2568 F   0  0  0  0  0  0  0  0  0  0  0  0
  -17.2851   -4.6419  -25.7017 F   0  0  0  0  0  0  0  0  0  0  0  0
  -26.6122   -4.4639  -22.8041 H   0  0  0  0  0  0  0  0  0  0  0  0
  -26.7802   -5.3138  -25.1140 H   0  0  0  0  0  0  0  0  0  0  0  0
  -18.9084   -4.4219  -35.6452 H   0  0  0  0  0  0  0  0  0  0  0  0
  -21.4896   -7.0798  -33.4473 H   0  0  0  0  0  0  0  0  0  0  0  0
  -24.4434   -3.6405  -21.9236 H   0  0  0  0  0  0  0  0  0  0  0  0
  -24.8239   -5.3517  -26.5971 H   0  0  0  0  0  0  0  0  0  0  0  0
  -17.9329   -6.3529  -36.8323 H   0  0  0  0  0  0  0  0  0  0  0  0
  -20.5123   -9.0086  -34.6359 H   0  0  0  0  0  0  0  0  0  0  0  0
  -19.9415   -4.5239  -28.1116 H   0  0  0  0  0  0  0  0  0  0  0  0
  -24.6673   -4.6510  -29.6263 H   0  0  0  0  0  0  0  0  0  0  0  0
  -23.4324   -5.6508  -30.3670 H   0  0  0  0  0  0  0  0  0  0  0  0
  -20.8454   -4.7989  -30.0303 H   0  0  0  0  0  0  0  0  0  0  0  0
  -20.6400   -3.3262  -29.1010 H   0  0  0  0  0  0  0  0  0  0  0  0
  -24.4529   -4.2461  -32.1286 H   0  0  0  0  0  0  0  0  0  0  0  0
  -24.1775   -2.7791  -31.1454 H   0  0  0  0  0  0  0  0  0  0  0  0
  -21.7687   -1.9851  -30.8302 H   0  0  0  0  0  0  0  0  0  0  0  0
  -20.4665   -2.9294  -31.6094 H   0  0  0  0  0  0  0  0  0  0  0  0
  -23.0375   -3.0594  -28.7767 H   0  0  0  0  0  0  0  0  0  0  0  0
  -20.0546   -3.9252  -33.2116 H   0  0  0  0  0  0  0  0  0  0  0  0
  -21.2574   -3.7224  -34.4652 H   0  0  0  0  0  0  0  0  0  0  0  0
  -21.5355   -5.4943  -31.9695 H   0  0  0  0  0  0  0  0  0  0  0  0
  -22.8088   -5.2984  -33.2054 H   0  0  0  0  0  0  0  0  0  0  0  0
  -23.0388   -5.7373  -27.8651 H   0  0  0  0  0  0  0  0  0  0  0  0
  -22.5765   -2.8762  -32.7785 H   0  0  0  0  0  0  0  0  0  0  0  0
  -19.0334   -9.6952  -36.1641 H   0  0  0  0  0  0  0  0  0  0  0  0
  1 16  1  0  0  0  0
  1 27  3  0  0  0  0
  2  3  2  0  0  0  0
  2  6  1  0  0  0  0
  3  7  1  0  0  0  0
  4  8  1  0  0  0  0
  4 10  2  0  0  0  0
  5  9  2  0  0  0  0
  5 10  1  0  0  0  0
  6 11  2  0  0  0  0
  7 12  2  0  0  0  0
  8 13  2  0  0  0  0
  9 13  1  0  0  0  0
 10 24  1  0  0  0  0
 11 12  1  0  0  0  0
 11 28  1  0  0  0  0
 12 29  1  0  0  0  0
 13 32  1  0  0  0  0
 14 16  1  0  0  0  0
 14 28  2  0  0  0  0
 14 29  1  0  0  0  0
 15 17  1  0  0  0  0
 15 18  2  0  0  0  0
 16 17  2  0  0  0  0
 17 26  1  0  0  0  0
 18 29  1  0  0  0  0
 18 30  1  0  0  0  0
 19 21  1  0  0  0  0
 19 23  1  0  0  0  0
 20 22  1  0  0  0  0
 20 23  1  0  0  0  0
 21 31  1  0  0  0  0
 22 31  1  0  0  0  0
 23 30  1  0  0  0  0
 24 25  1  0  0  0  0
 25 31  1  0  0  0  0
 26 33  1  0  0  0  0
 26 34  1  0  0  0  0
 26 35  1  0  0  0  0
  2 36  1  0  0  0  0
  3 37  1  0  0  0  0
  4 38  1  0  0  0  0
  5 39  1  0  0  0  0
  6 40  1  0  0  0  0
  7 41  1  0  0  0  0
  8 42  1  0  0  0  0
  9 43  1  0  0  0  0
 15 44  1  0  0  0  0
 19 45  1  0  0  0  0
 19 46  1  0  0  0  0
 20 47  1  0  0  0  0
 20 48  1  0  0  0  0
 21 49  1  0  0  0  0
 21 50  1  0  0  0  0
 22 51  1  0  0  0  0
 22 52  1  0  0  0  0
 23 53  1  0  0  0  0
 24 54  1  0  0  0  0
 24 55  1  0  0  0  0
 25 56  1  0  0  0  0
 25 57  1  0  0  0  0
 30 58  1  0  0  0  0
 31 59  1  0  0  0  0
 32 60  1  0  0  0  0
M  CHG  1  31   1
M  END
> <SMILES>
Oc1ccc(cc1)CCN1CCC(CC1)Nc1cc(c(c2nc3ccccc3n12)C#N)C(F)(F)F

> <FORMATTED_ID>
H3D-005858

> <MOLFORMULA>
C26H24F3N5O

> <Exact Mass>
479.19

> <XLogP>
6.08

> <TPSA_NOPS>
76.6

> <s_m_source_file>
ligprep_h3d.sdf

> <i_m_source_file_index>
2457

> <i_lp_mmshare_version>
55123

> <i_f3d_flags>
0

> <s_epik_input>
W09IXWMxW2NIXVtjSF1jKFtjSF1bY0hdMSlbQ0gyXVtDSDJdTjJbQ0gyXVtDSDJdW0NIXShbQ0gyXVtDSDJdMilbTkhdYyhbY0hdYyhDKEYpKEYpRiljM0MjTiluKGMzNCljNWMobjQpW2NIXVtjSF1bY0hdW2NIXTU=

> <s_epik_cmdline>
J2VwaWtfcHl0aG9uJywgJy1waHQnLCAnMC41JywgJy1waCcsICc3LjUnLCAnLXRuJywgJzgnLCAnLW1hJywgJzUwMCcsICctaW1hZScsICc8aW5maWxlLm1hZT4nLCAnLW9tYWUnLCAnPG91dGZpbGUubWFlPic=

> <r_lp_tautomer_probability>
1

> <r_epik_Ionization_Penalty>
0.0105268

> <r_epik_Ionization_Penalty_Charging>
0.0050743

> <r_epik_Ionization_Penalty_Neutral>
0.00545251

> <r_epik_State_Penalty>
-0

> <r_epik_Charging_Adjusted_Penalty>
0.0050743

> <i_epik_Tot_Q>
1

> <i_epik_Tot_abs_Q>
1

> <s_lp_Force_Field>
S-OPLS

> <r_lp_Energy>
65.5408

> <b_lp_Chiralities_Consistent>
1

> <s_lp_Variant>
ligprep_h3d.sdf:2457-1

> <ROCS_ShapeQuery>
_7L13

> <ROCS_TanimotoCombo>
0.818 

> <ROCS_ShapeTanimoto>
0.670 

> <ROCS_ColorTanimoto>
0.148 

> <ROCS_RefTversky>
0.794 

> <ROCS_RefColorTversky>
0.296 

> <ROCS_RefTverskyCombo>
1.090 

> <ROCS_FitTversky>
0.811 

> <ROCS_FitColorTversky>
0.228 

> <ROCS_FitTverskyCombo>
1.039 

> <ROCS_ColorScore>
-2.710

> <ROCS_Overlap>
1316.917

> <ROCS_Rank>
245                 

$$$$
ligprep_h3d.sdf:2476_1730
  -OEChem-08212117123D

 72 77  0     1  0  0  0  0  0999 V2000
  -20.8699   -5.4090  -24.2337 C   0  0  0  0  0  0  0  0  0  0  0  0
  -17.3702   -4.1385  -30.0195 C   0  0  0  0  0  0  0  0  0  0  0  0
  -24.3063   -5.6882  -24.8081 C   0  0  0  0  0  0  0  0  0  0  0  0
  -23.7725   -3.4351  -24.1184 C   0  0  0  0  0  0  0  0  0  0  0  0
  -25.3540   -5.7217  -23.8879 C   0  0  0  0  0  0  0  0  0  0  0  0
  -24.8203   -3.4685  -23.1982 C   0  0  0  0  0  0  0  0  0  0  0  0
  -18.7174   -3.9443  -29.7226 C   0  0  0  0  0  0  0  0  0  0  0  0
  -21.7268   -6.5435  -35.2572 C   0  0  0  0  0  0  0  0  0  0  0  0
  -20.8795   -6.9990  -36.3013 C   0  0  0  0  0  0  0  0  0  0  0  0
  -16.5498   -4.7266  -29.0714 C   0  0  0  0  0  0  0  0  0  0  0  0
  -23.5155   -4.5449  -24.9233 C   0  0  0  0  0  0  0  0  0  0  0  0
  -25.6110   -4.6119  -23.0830 C   0  0  0  0  0  0  0  0  0  0  0  0
  -19.8935   -6.4960  -33.7641 C   0  0  0  0  0  0  0  0  0  0  0  0
  -19.0233   -6.9637  -34.8364 C   0  0  0  0  0  0  0  0  0  0  0  0
  -19.1584   -4.3720  -28.4657 C   0  0  0  0  0  0  0  0  0  0  0  0
  -21.2700   -6.2754  -33.9539 C   0  0  0  0  0  0  0  0  0  0  0  0
  -19.5014   -7.2259  -36.1334 C   0  0  0  0  0  0  0  0  0  0  0  0
  -18.2496   -4.9349  -27.5711 C   0  0  0  0  0  0  0  0  0  0  0  0
  -20.1000   -4.8730  -26.5084 C   0  0  0  0  0  0  0  0  0  0  0  0
  -22.6511   -4.0340  -27.2601 C   0  0  0  0  0  0  0  0  0  0  0  0
  -21.1614   -4.9249  -25.5466 C   0  0  0  0  0  0  0  0  0  0  0  0
  -22.4033   -4.5091  -25.8999 C   0  0  0  0  0  0  0  0  0  0  0  0
  -21.6711   -3.9742  -28.1849 C   0  0  0  0  0  0  0  0  0  0  0  0
  -21.2532   -1.5719  -33.4409 C   0  0  0  0  0  0  0  0  0  0  0  0
  -23.4254   -5.2134  -33.2816 C   0  0  0  0  0  0  0  0  0  0  0  0
  -23.0907   -2.7994  -29.7759 C   0  0  0  0  0  0  0  0  0  0  0  0
  -22.4312   -2.5175  -33.5286 C   0  0  0  0  0  0  0  0  0  0  0  0
  -23.7676   -4.1735  -32.2314 C   0  0  0  0  0  0  0  0  0  0  0  0
  -22.9313   -2.1156  -31.1207 C   0  0  0  0  0  0  0  0  0  0  0  0
  -26.7328   -4.6476  -22.1010 C   0  0  0  0  0  0  0  0  0  0  0  0
  -20.6331   -5.8020  -23.1682 N   0  0  0  0  0  0  0  0  0  0  0  0
  -16.9365   -5.1340  -27.8455 N   0  0  0  0  0  0  0  0  0  0  0  0
  -19.1506   -6.3399  -32.6613 N   0  0  0  0  0  0  0  0  0  0  0  0
  -17.7817   -7.0755  -34.3482 N   0  0  0  0  0  0  0  0  0  0  0  0
  -18.8405   -5.2376  -26.3818 N   0  0  0  0  0  0  0  0  0  0  0  0
  -20.3750   -4.3746  -27.7913 N   0  0  0  0  0  0  0  0  0  0  0  0
  -22.1191   -5.8388  -32.9770 N   0  0  0  0  0  0  0  0  0  0  0  0
  -21.9182   -3.5682  -29.4670 N   0  0  0  0  0  0  0  0  0  0  0  0
  -18.6533   -7.6770  -37.1685 N   0  3  0  0  0  0  0  0  0  0  0  0
  -22.6778   -3.1313  -32.1723 N   0  3  2  0  0  0  0  0  0  0  0  0
  -19.1369   -7.8958  -38.3097 O   0  5  0  0  0  0  0  0  0  0  0  0
  -17.4299   -7.8520  -36.9300 O   0  0  0  0  0  0  0  0  0  0  0  0
  -17.8613   -6.6942  -33.0197 O   0  0  0  0  0  0  0  0  0  0  0  0
  -27.4214   -5.8273  -22.0989 F   0  0  0  0  0  0  0  0  0  0  0  0
  -26.3332   -4.4664  -20.8074 F   0  0  0  0  0  0  0  0  0  0  0  0
  -27.6663   -3.6795  -22.3346 F   0  0  0  0  0  0  0  0  0  0  0  0
  -16.9705   -3.8288  -30.9797 H   0  0  0  0  0  0  0  0  0  0  0  0
  -24.1180   -6.5612  -25.4285 H   0  0  0  0  0  0  0  0  0  0  0  0
  -23.1652   -2.5365  -24.1969 H   0  0  0  0  0  0  0  0  0  0  0  0
  -25.9652   -6.6165  -23.8052 H   0  0  0  0  0  0  0  0  0  0  0  0
  -25.0136   -2.5995  -22.5749 H   0  0  0  0  0  0  0  0  0  0  0  0
  -19.3617   -3.4678  -30.4488 H   0  0  0  0  0  0  0  0  0  0  0  0
  -22.7821   -6.3972  -35.4883 H   0  0  0  0  0  0  0  0  0  0  0  0
  -21.3303   -7.1775  -37.2775 H   0  0  0  0  0  0  0  0  0  0  0  0
  -15.4975   -4.8860  -29.2892 H   0  0  0  0  0  0  0  0  0  0  0  0
  -23.6684   -3.7448  -27.5109 H   0  0  0  0  0  0  0  0  0  0  0  0
  -21.4717   -0.7600  -32.7405 H   0  0  0  0  0  0  0  0  0  0  0  0
  -20.3551   -2.0901  -33.0889 H   0  0  0  0  0  0  0  0  0  0  0  0
  -21.0294   -1.1267  -34.4160 H   0  0  0  0  0  0  0  0  0  0  0  0
  -24.1895   -5.9963  -33.3305 H   0  0  0  0  0  0  0  0  0  0  0  0
  -23.3570   -4.7424  -34.2674 H   0  0  0  0  0  0  0  0  0  0  0  0
  -23.2566   -2.0704  -28.9757 H   0  0  0  0  0  0  0  0  0  0  0  0
  -23.9483   -3.4793  -29.8001 H   0  0  0  0  0  0  0  0  0  0  0  0
  -22.2390   -3.3398  -34.2232 H   0  0  0  0  0  0  0  0  0  0  0  0
  -23.3480   -1.9956  -33.8166 H   0  0  0  0  0  0  0  0  0  0  0  0
  -23.8283   -4.6195  -31.2347 H   0  0  0  0  0  0  0  0  0  0  0  0
  -24.6992   -3.6452  -32.4556 H   0  0  0  0  0  0  0  0  0  0  0  0
  -22.0711   -1.4402  -31.1243 H   0  0  0  0  0  0  0  0  0  0  0  0
  -23.8303   -1.5681  -31.4193 H   0  0  0  0  0  0  0  0  0  0  0  0
  -21.8860   -5.9257  -32.0112 H   0  0  0  0  0  0  0  0  0  0  0  0
  -21.2537   -3.8307  -30.1533 H   0  0  0  0  0  0  0  0  0  0  0  0
  -21.8094   -3.6358  -31.9245 H   0  0  0  0  0  0  0  0  0  0  0  0
  1 21  1  0  0  0  0
  1 31  3  0  0  0  0
  2  7  1  0  0  0  0
  2 10  2  0  0  0  0
  3  5  1  0  0  0  0
  3 11  2  0  0  0  0
  4  6  2  0  0  0  0
  4 11  1  0  0  0  0
  5 12  2  0  0  0  0
  6 12  1  0  0  0  0
  7 15  2  0  0  0  0
  8  9  1  0  0  0  0
  8 16  2  0  0  0  0
  9 17  2  0  0  0  0
 10 32  1  0  0  0  0
 11 22  1  0  0  0  0
 12 30  1  0  0  0  0
 13 14  1  0  0  0  0
 13 16  1  0  0  0  0
 13 33  2  0  0  0  0
 14 17  1  0  0  0  0
 14 34  2  0  0  0  0
 15 18  1  0  0  0  0
 15 36  1  0  0  0  0
 16 37  1  0  0  0  0
 17 39  1  0  0  0  0
 18 32  2  0  0  0  0
 18 35  1  0  0  0  0
 19 21  1  0  0  0  0
 19 35  2  0  0  0  0
 19 36  1  0  0  0  0
 20 22  1  0  0  0  0
 20 23  2  0  0  0  0
 21 22  2  0  0  0  0
 23 36  1  0  0  0  0
 23 38  1  0  0  0  0
 24 27  1  0  0  0  0
 25 28  1  0  0  0  0
 25 37  1  0  0  0  0
 26 29  1  0  0  0  0
 26 38  1  0  0  0  0
 27 40  1  0  0  0  0
 28 40  1  0  0  0  0
 29 40  1  0  0  0  0
 30 44  1  0  0  0  0
 30 45  1  0  0  0  0
 30 46  1  0  0  0  0
 33 43  1  0  0  0  0
 34 43  1  0  0  0  0
 39 41  1  0  0  0  0
 39 42  2  0  0  0  0
  2 47  1  0  0  0  0
  3 48  1  0  0  0  0
  4 49  1  0  0  0  0
  5 50  1  0  0  0  0
  6 51  1  0  0  0  0
  7 52  1  0  0  0  0
  8 53  1  0  0  0  0
  9 54  1  0  0  0  0
 10 55  1  0  0  0  0
 20 56  1  0  0  0  0
 24 57  1  0  0  0  0
 24 58  1  0  0  0  0
 24 59  1  0  0  0  0
 25 60  1  0  0  0  0
 25 61  1  0  0  0  0
 26 62  1  0  0  0  0
 26 63  1  0  0  0  0
 27 64  1  0  0  0  0
 27 65  1  0  0  0  0
 28 66  1  0  0  0  0
 28 67  1  0  0  0  0
 29 68  1  0  0  0  0
 29 69  1  0  0  0  0
 37 70  1  0  0  0  0
 38 71  1  0  0  0  0
 40 72  1  0  0  0  0
M  CHG  3  39   1  40   1  41  -1
M  END
> <SMILES>
CCN(CCNc1ccc(c2nonc12)[N+](=O)[O-])CCNc1cc(c(c2nc3ncccc3n12)C#N)-c1ccc(cc1)C(F)(F)F

> <FORMATTED_ID>
H3D-005898

> <MOLFORMULA>
C30H25F3N10O3

> <Exact Mass>
630.21

> <XLogP>
4.92

> <TPSA_NOPS>
163.6

> <s_m_source_file>
ligprep_h3d.sdf

> <i_m_source_file_index>
2476

> <i_lp_mmshare_version>
55123

> <i_f3d_flags>
0

> <s_epik_input>
Tz1bTitdKFtPLV0pYzFbY0hdW2NIXWMoYyhjMTIpbm9uMilbTkhdW0NIMl1bQ0gyXU4oW0NIMl1bQ0gzXSlbQ0gyXVtDSDJdW05IXWMobihjMzQpYzVjKG40KW5bY0hdW2NIXVtjSF01KVtjSF1jKGMzQyNOKS1jNltjSF1bY0hdYyhDKEYpKEYpRilbY0hdW2NIXTY=

> <s_epik_cmdline>
J2VwaWtfcHl0aG9uJywgJy1waHQnLCAnMC41JywgJy1waCcsICc3LjUnLCAnLXRuJywgJzgnLCAnLW1hJywgJzUwMCcsICctaW1hZScsICc8aW5maWxlLm1hZT4nLCAnLW9tYWUnLCAnPG91dGZpbGUubWFlPic=

> <r_lp_tautomer_probability>
1

> <r_epik_Ionization_Penalty>
0.00394161

> <r_epik_Ionization_Penalty_Charging>
0.00377585

> <r_epik_Ionization_Penalty_Neutral>
0.000165763

> <r_epik_State_Penalty>
-0

> <r_epik_Charging_Adjusted_Penalty>
0.00377585

> <i_epik_Tot_Q>
1

> <i_epik_Tot_abs_Q>
3

> <s_lp_Force_Field>
S-OPLS

> <r_lp_Energy>
88.6933

> <b_lp_Chiralities_Consistent>
1

> <s_lp_Variant>
ligprep_h3d.sdf:2476-1

> <ROCS_ShapeQuery>
_7L13

> <ROCS_TanimotoCombo>
0.623 

> <ROCS_ShapeTanimoto>
0.539 

> <ROCS_ColorTanimoto>
0.084 

> <ROCS_RefTversky>
0.794 

> <ROCS_RefColorTversky>
0.214 

> <ROCS_RefTverskyCombo>
1.008 

> <ROCS_FitTversky>
0.627 

> <ROCS_FitColorTversky>
0.121 

> <ROCS_FitTverskyCombo>
0.748 

> <ROCS_ColorScore>
-2.013

> <ROCS_Overlap>
1338.119

> <ROCS_Rank>
246                 

$$$$
ligprep_h3d.sdf:4947_1170
  -OEChem-08212117123D

 64 68  0     1  0  0  0  0  0999 V2000
  -22.6065   -6.9862  -33.4164 C   0  0  0  0  0  0  0  0  0  0  0  0
  -24.9622   -4.2408  -25.2645 C   0  0  0  0  0  0  0  0  0  0  0  0
  -23.4519   -5.2251  -23.6560 C   0  0  0  0  0  0  0  0  0  0  0  0
  -21.7590   -7.8155  -34.1510 C   0  0  0  0  0  0  0  0  0  0  0  0
  -25.8583   -3.9397  -24.2388 C   0  0  0  0  0  0  0  0  0  0  0  0
  -24.3479   -4.9239  -22.6303 C   0  0  0  0  0  0  0  0  0  0  0  0
  -20.9972   -5.1921  -33.5852 C   0  0  0  0  0  0  0  0  0  0  0  0
  -16.8605   -5.2227  -26.7564 C   0  0  0  0  0  0  0  0  0  0  0  0
  -18.0336   -4.1404  -24.9428 C   0  0  0  0  0  0  0  0  0  0  0  0
  -15.7797   -4.9457  -24.6134 C   0  0  0  0  0  0  0  0  0  0  0  0
  -22.2256   -5.6744  -33.1336 C   0  0  0  0  0  0  0  0  0  0  0  0
  -20.1497   -6.0214  -34.3198 C   0  0  0  0  0  0  0  0  0  0  0  0
  -18.0028   -4.5935  -26.2616 C   0  0  0  0  0  0  0  0  0  0  0  0
  -23.7590   -4.8835  -24.9731 C   0  0  0  0  0  0  0  0  0  0  0  0
  -20.5306   -7.3331  -34.6027 C   0  0  0  0  0  0  0  0  0  0  0  0
  -25.5511   -4.2812  -22.9217 C   0  0  0  0  0  0  0  0  0  0  0  0
  -15.7489   -5.3988  -25.9323 C   0  0  0  0  0  0  0  0  0  0  0  0
  -16.9221   -4.3165  -24.1186 C   0  0  0  0  0  0  0  0  0  0  0  0
  -22.3764   -3.7610  -31.5390 C   0  0  0  0  0  0  0  0  0  0  0  0
  -22.2368   -5.4737  -29.6724 C   0  0  0  0  0  0  0  0  0  0  0  0
  -19.3554   -4.7727  -28.4470 C   0  0  0  0  0  0  0  0  0  0  0  0
  -20.2526   -3.5613  -26.9776 C   0  0  0  0  0  0  0  0  0  0  0  0
  -21.2321   -3.2779  -29.3952 C   0  0  0  0  0  0  0  0  0  0  0  0
  -21.8691   -5.3146  -28.1981 C   0  0  1  0  0  0  0  0  0  0  0  0
  -20.7968   -4.2149  -28.2722 C   0  0  0  0  0  0  0  0  0  0  0  0
  -23.1379   -4.7828  -32.3449 C   0  0  0  0  0  0  0  0  0  0  0  0
  -23.0797   -4.8800  -27.3739 C   0  0  0  0  0  0  0  0  0  0  0  0
  -18.8389   -5.4883  -34.7966 C   0  0  0  0  0  0  0  0  0  0  0  0
  -19.1201   -4.4157  -27.0898 N   0  0  0  0  0  0  0  0  0  0  0  0
  -21.9839   -4.1654  -30.2730 N   0  0  0  0  0  0  0  0  0  0  0  0
  -22.8617   -5.1851  -26.0002 N   0  0  0  0  0  0  0  0  0  0  0  0
  -22.1428   -2.6462  -32.0094 O   0  0  0  0  0  0  0  0  0  0  0  0
  -19.7144   -8.1575  -35.3175 O   0  0  0  0  0  0  0  0  0  0  0  0
  -26.4116   -3.9920  -21.9367 F   0  0  0  0  0  0  0  0  0  0  0  0
  -14.6515   -6.0014  -26.4083 F   0  0  0  0  0  0  0  0  0  0  0  0
  -16.9510   -3.8796  -22.8528 F   0  0  0  0  0  0  0  0  0  0  0  0
  -18.6154   -4.1897  -34.4393 F   0  0  0  0  0  0  0  0  0  0  0  0
  -17.7631   -6.1805  -34.3197 F   0  0  0  0  0  0  0  0  0  0  0  0
  -18.7239   -5.5206  -36.1555 F   0  0  0  0  0  0  0  0  0  0  0  0
  -23.5621   -7.3699  -33.0689 H   0  0  0  0  0  0  0  0  0  0  0  0
  -25.2115   -3.9698  -26.2872 H   0  0  0  0  0  0  0  0  0  0  0  0
  -22.5173   -5.7264  -23.4177 H   0  0  0  0  0  0  0  0  0  0  0  0
  -22.0632   -8.8357  -34.3692 H   0  0  0  0  0  0  0  0  0  0  0  0
  -26.7950   -3.4390  -24.4652 H   0  0  0  0  0  0  0  0  0  0  0  0
  -24.1094   -5.1899  -21.6048 H   0  0  0  0  0  0  0  0  0  0  0  0
  -20.7013   -4.1691  -33.3644 H   0  0  0  0  0  0  0  0  0  0  0  0
  -16.8255   -5.5787  -27.7826 H   0  0  0  0  0  0  0  0  0  0  0  0
  -18.9183   -3.6480  -24.5473 H   0  0  0  0  0  0  0  0  0  0  0  0
  -14.9134   -5.0818  -23.9728 H   0  0  0  0  0  0  0  0  0  0  0  0
  -21.5653   -6.1831  -30.1683 H   0  0  0  0  0  0  0  0  0  0  0  0
  -23.2677   -5.7936  -29.8473 H   0  0  0  0  0  0  0  0  0  0  0  0
  -19.2803   -5.8544  -28.6102 H   0  0  0  0  0  0  0  0  0  0  0  0
  -18.7020   -4.2478  -29.1503 H   0  0  0  0  0  0  0  0  0  0  0  0
  -19.9984   -2.4992  -27.0387 H   0  0  0  0  0  0  0  0  0  0  0  0
  -20.8320   -3.7589  -26.0686 H   0  0  0  0  0  0  0  0  0  0  0  0
  -21.9173   -2.4997  -29.0373 H   0  0  0  0  0  0  0  0  0  0  0  0
  -20.4026   -2.8054  -29.9331 H   0  0  0  0  0  0  0  0  0  0  0  0
  -21.4780   -6.2519  -27.7892 H   0  0  0  0  0  0  0  0  0  0  0  0
  -23.8223   -4.2581  -33.0138 H   0  0  0  0  0  0  0  0  0  0  0  0
  -23.7567   -5.3678  -31.6628 H   0  0  0  0  0  0  0  0  0  0  0  0
  -23.1971   -3.8070  -27.5150 H   0  0  0  0  0  0  0  0  0  0  0  0
  -23.9417   -5.4239  -27.7560 H   0  0  0  0  0  0  0  0  0  0  0  0
  -21.9962   -5.6580  -25.7272 H   0  0  0  0  0  0  0  0  0  0  0  0
  -20.1275   -9.0288  -35.4226 H   0  0  0  0  0  0  0  0  0  0  0  0
  1  4  1  0  0  0  0
  1 11  2  0  0  0  0
  2  5  1  0  0  0  0
  2 14  2  0  0  0  0
  3  6  2  0  0  0  0
  3 14  1  0  0  0  0
  4 15  2  0  0  0  0
  5 16  2  0  0  0  0
  6 16  1  0  0  0  0
  7 11  1  0  0  0  0
  7 12  2  0  0  0  0
  8 13  2  0  0  0  0
  8 17  1  0  0  0  0
  9 13  1  0  0  0  0
  9 18  2  0  0  0  0
 10 17  2  0  0  0  0
 10 18  1  0  0  0  0
 11 26  1  0  0  0  0
 12 15  1  0  0  0  0
 12 28  1  0  0  0  0
 13 29  1  0  0  0  0
 14 31  1  0  0  0  0
 15 33  1  0  0  0  0
 16 34  1  0  0  0  0
 17 35  1  0  0  0  0
 18 36  1  0  0  0  0
 19 26  1  0  0  0  0
 19 30  1  0  0  0  0
 19 32  2  0  0  0  0
 20 24  1  0  0  0  0
 20 30  1  0  0  0  0
 21 25  1  0  0  0  0
 21 29  1  0  0  0  0
 22 25  1  0  0  0  0
 22 29  1  0  0  0  0
 23 25  1  0  0  0  0
 23 30  1  0  0  0  0
 24 25  1  0  0  0  0
 24 27  1  0  0  0  0
 27 31  1  0  0  0  0
 28 37  1  0  0  0  0
 28 38  1  0  0  0  0
 28 39  1  0  0  0  0
  1 40  1  0  0  0  0
  2 41  1  0  0  0  0
  3 42  1  0  0  0  0
  4 43  1  0  0  0  0
  5 44  1  0  0  0  0
  6 45  1  0  0  0  0
  7 46  1  0  0  0  0
  8 47  1  0  0  0  0
  9 48  1  0  0  0  0
 10 49  1  0  0  0  0
 20 50  1  0  0  0  0
 20 51  1  0  0  0  0
 21 52  1  0  0  0  0
 21 53  1  0  0  0  0
 22 54  1  0  0  0  0
 22 55  1  0  0  0  0
 23 56  1  0  0  0  0
 23 57  1  0  0  0  0
 24 58  1  0  0  0  0
 26 59  1  0  0  0  0
 26 60  1  0  0  0  0
 27 61  1  0  0  0  0
 27 62  1  0  0  0  0
 31 63  1  0  0  0  0
 33 64  1  0  0  0  0
M  END
> <SMILES>
Oc1ccc(cc1C(F)(F)F)CC(=O)N1CC(CNc2ccc(cc2)F)C2(C1)CN(C2)c1cc(cc(c1)F)F

> <FORMATTED_ID>
H3D-008478

> <MOLFORMULA>
C28H25F6N3O2

> <Exact Mass>
549.19

> <XLogP>
5.12

> <TPSA_NOPS>
55.8

> <s_m_source_file>
ligprep_h3d.sdf

> <i_m_source_file_index>
4947

> <i_lp_mmshare_version>
55123

> <i_f3d_flags>
0

> <s_epik_input>
W09IXWMxW2NIXVtjSF1jKFtjSF1jMUMoRikoRilGKVtDSDJdQyg9TylOKFtDSDJdMilbQ0gyXVtDQEhdKFtDSDJdW05IXWMzW2NIXVtjSF1jKEYpW2NIXVtjSF0zKUMyNFtDSDJdTihbQ0gyXTQpYzVbY0hdYyhGKVtjSF1jKEYpW2NIXTU=

> <s_epik_cmdline>
J2VwaWtfcHl0aG9uJywgJy1waHQnLCAnMC41JywgJy1waCcsICc3LjUnLCAnLXRuJywgJzgnLCAnLW1hJywgJzUwMCcsICctaW1hZScsICc8aW5maWxlLm1hZT4nLCAnLW9tYWUnLCAnPG91dGZpbGUubWFlPic=

> <r_lp_tautomer_probability>
1

> <r_epik_Ionization_Penalty>
0.140179

> <r_epik_Ionization_Penalty_Charging>
0

> <r_epik_Ionization_Penalty_Neutral>
0.140179

> <r_epik_State_Penalty>
0.127079

> <r_epik_Charging_Adjusted_Penalty>
0.127079

> <i_epik_Tot_Q>
0

> <i_epik_Tot_abs_Q>
0

> <s_lp_Force_Field>
S-OPLS

> <r_lp_Energy>
44.1198

> <b_lp_Chiralities_Consistent>
1

> <s_lp_Variant>
ligprep_h3d.sdf:4947-1

> <ROCS_ShapeQuery>
_7L13

> <ROCS_TanimotoCombo>
0.683 

> <ROCS_ShapeTanimoto>
0.620 

> <ROCS_ColorTanimoto>
0.062 

> <ROCS_RefTversky>
0.794 

> <ROCS_RefColorTversky>
0.118 

> <ROCS_RefTverskyCombo>
0.911 

> <ROCS_FitTversky>
0.740 

> <ROCS_FitColorTversky>
0.118 

> <ROCS_FitTverskyCombo>
0.857 

> <ROCS_ColorScore>
-1.059

> <ROCS_Overlap>
1323.170

> <ROCS_Rank>
247                 

$$$$
ligprep_h3d.sdf:1268_1093
  -OEChem-08212117123D

 55 59  0     0  0  0  0  0  0999 V2000
  -20.2873   -3.8307  -32.4285 C   0  0  0  0  0  0  0  0  0  0  0  0
  -19.7744   -3.9840  -33.7207 C   0  0  0  0  0  0  0  0  0  0  0  0
  -16.7167   -5.5868  -26.5308 C   0  0  0  0  0  0  0  0  0  0  0  0
  -20.6373   -6.2290  -32.2089 C   0  0  0  0  0  0  0  0  0  0  0  0
  -23.1186   -4.3291  -28.8849 C   0  0  0  0  0  0  0  0  0  0  0  0
  -20.6407   -4.3869  -25.5492 C   0  0  0  0  0  0  0  0  0  0  0  0
  -16.7139   -4.4297  -27.3326 C   0  0  0  0  0  0  0  0  0  0  0  0
  -19.8859   -7.4856  -34.3747 C   0  0  0  0  0  0  0  0  0  0  0  0
  -20.1242   -6.3992  -33.5056 C   0  0  0  0  0  0  0  0  0  0  0  0
  -20.9196   -4.5635  -27.9442 C   0  0  0  0  0  0  0  0  0  0  0  0
  -20.7119   -4.9328  -31.6838 C   0  0  0  0  0  0  0  0  0  0  0  0
  -21.2397   -4.7347  -30.3441 C   0  0  0  0  0  0  0  0  0  0  0  0
  -22.6012   -4.5208  -30.1684 C   0  0  0  0  0  0  0  0  0  0  0  0
  -20.3989   -4.7563  -29.2351 C   0  0  0  0  0  0  0  0  0  0  0  0
  -22.3009   -4.3459  -27.7583 C   0  0  0  0  0  0  0  0  0  0  0  0
  -19.7084   -5.2846  -34.2253 C   0  0  0  0  0  0  0  0  0  0  0  0
  -20.0960   -4.5804  -26.8104 C   0  0  0  0  0  0  0  0  0  0  0  0
  -22.0030   -4.1815  -25.4672 C   0  0  0  0  0  0  0  0  0  0  0  0
  -18.0405   -5.7902  -26.2262 C   0  0  0  0  0  0  0  0  0  0  0  0
  -22.6375   -3.9738  -24.1768 C   0  0  0  0  0  0  0  0  0  0  0  0
  -26.1035   -4.8404  -23.1287 C   0  0  0  0  0  0  0  0  0  0  0  0
  -23.5487   -4.4866  -31.3254 C   0  0  0  0  0  0  0  0  0  0  0  0
  -18.9388   -4.9928  -29.5027 C   0  0  0  0  0  0  0  0  0  0  0  0
  -18.6888   -6.8416  -25.4180 C   0  0  0  0  0  0  0  0  0  0  0  0
  -24.7375   -4.2443  -22.8323 C   0  0  0  0  0  0  0  0  0  0  0  0
  -17.9387   -3.9330  -27.5255 N   0  0  0  0  0  0  0  0  0  0  0  0
  -19.3653   -7.1089  -35.5447 N   0  0  0  0  0  0  0  0  0  0  0  0
  -22.8324   -4.1578  -26.5356 N   0  0  0  0  0  0  0  0  0  0  0  0
  -19.2692   -5.7741  -35.4258 N   0  0  0  0  0  0  0  0  0  0  0  0
  -18.7235   -4.7821  -26.8405 N   0  0  0  0  0  0  0  0  0  0  0  0
  -23.9642   -4.4016  -24.0431 N   0  0  0  0  0  0  0  0  0  0  0  0
  -26.9275   -4.7968  -22.1719 O   0  5  0  0  0  0  0  0  0  0  0  0
  -22.0194   -3.4195  -23.2496 O   0  0  0  0  0  0  0  0  0  0  0  0
  -26.2490   -5.2948  -24.2986 O   0  0  0  0  0  0  0  0  0  0  0  0
  -20.3485   -2.8276  -32.0108 H   0  0  0  0  0  0  0  0  0  0  0  0
  -19.4440   -3.1295  -34.3008 H   0  0  0  0  0  0  0  0  0  0  0  0
  -15.8753   -6.1880  -26.2188 H   0  0  0  0  0  0  0  0  0  0  0  0
  -20.9662   -7.0896  -31.6323 H   0  0  0  0  0  0  0  0  0  0  0  0
  -24.1882   -4.1625  -28.7621 H   0  0  0  0  0  0  0  0  0  0  0  0
  -20.0249   -4.3952  -24.6541 H   0  0  0  0  0  0  0  0  0  0  0  0
  -15.8704   -3.9279  -27.7846 H   0  0  0  0  0  0  0  0  0  0  0  0
  -20.0699   -8.5365  -34.2019 H   0  0  0  0  0  0  0  0  0  0  0  0
  -23.6395   -3.4646  -31.7089 H   0  0  0  0  0  0  0  0  0  0  0  0
  -23.2032   -5.1373  -32.1370 H   0  0  0  0  0  0  0  0  0  0  0  0
  -24.5433   -4.8413  -31.0307 H   0  0  0  0  0  0  0  0  0  0  0  0
  -18.7265   -6.0645  -29.4766 H   0  0  0  0  0  0  0  0  0  0  0  0
  -18.6558   -4.5961  -30.4816 H   0  0  0  0  0  0  0  0  0  0  0  0
  -18.3217   -4.4878  -28.7541 H   0  0  0  0  0  0  0  0  0  0  0  0
  -18.7593   -6.5421  -24.3595 H   0  0  0  0  0  0  0  0  0  0  0  0
  -19.7098   -7.0649  -25.7718 H   0  0  0  0  0  0  0  0  0  0  0  0
  -18.1362   -7.7958  -25.4603 H   0  0  0  0  0  0  0  0  0  0  0  0
  -24.2541   -4.7670  -22.0012 H   0  0  0  0  0  0  0  0  0  0  0  0
  -24.8229   -3.1855  -22.5691 H   0  0  0  0  0  0  0  0  0  0  0  0
  -18.8911   -5.2507  -36.2055 H   0  0  0  0  0  0  0  0  0  0  0  0
  -24.4427   -4.7904  -24.8491 H   0  0  0  0  0  0  0  0  0  0  0  0
  1  2  2  0  0  0  0
  1 11  1  0  0  0  0
  2 16  1  0  0  0  0
  3  7  1  0  0  0  0
  3 19  2  0  0  0  0
  4  9  1  0  0  0  0
  4 11  2  0  0  0  0
  5 13  2  0  0  0  0
  5 15  1  0  0  0  0
  6 17  1  0  0  0  0
  6 18  2  0  0  0  0
  7 26  2  0  0  0  0
  8  9  1  0  0  0  0
  8 27  2  0  0  0  0
  9 16  2  0  0  0  0
 10 14  1  0  0  0  0
 10 15  1  0  0  0  0
 10 17  2  0  0  0  0
 11 12  1  0  0  0  0
 12 13  1  0  0  0  0
 12 14  2  0  0  0  0
 13 22  1  0  0  0  0
 14 23  1  0  0  0  0
 15 28  2  0  0  0  0
 16 29  1  0  0  0  0
 17 30  1  0  0  0  0
 18 20  1  0  0  0  0
 18 28  1  0  0  0  0
 19 24  1  0  0  0  0
 19 30  1  0  0  0  0
 20 31  1  0  0  0  0
 20 33  2  0  0  0  0
 21 25  1  0  0  0  0
 21 32  1  0  0  0  0
 21 34  2  0  0  0  0
 25 31  1  0  0  0  0
 26 30  1  0  0  0  0
 27 29  1  0  0  0  0
  1 35  1  0  0  0  0
  2 36  1  0  0  0  0
  3 37  1  0  0  0  0
  4 38  1  0  0  0  0
  5 39  1  0  0  0  0
  6 40  1  0  0  0  0
  7 41  1  0  0  0  0
  8 42  1  0  0  0  0
 22 43  1  0  0  0  0
 22 44  1  0  0  0  0
 22 45  1  0  0  0  0
 23 46  1  0  0  0  0
 23 47  1  0  0  0  0
 23 48  1  0  0  0  0
 24 49  1  0  0  0  0
 24 50  1  0  0  0  0
 24 51  1  0  0  0  0
 25 52  1  0  0  0  0
 25 53  1  0  0  0  0
 29 54  1  0  0  0  0
 31 55  1  0  0  0  0
M  CHG  1  32  -1
M  END
> <SMILES>
Cc1cc2nc(cc(c2c(c1-c1ccc2[nH]ncc2c1)C)-n1nccc1C)C(=O)NCC(=O)O

> <FORMATTED_ID>
H3D-008568

> <MOLFORMULA>
C25H22N6O3

> <Exact Mass>
454.18

> <XLogP>
4.01

> <TPSA_NOPS>
125.8

> <s_m_source_file>
ligprep_h3d.sdf

> <i_m_source_file_index>
1268

> <i_lp_mmshare_version>
55123

> <i_f3d_flags>
0

> <s_epik_input>
TjE9TltDSF09QyhDMTIpW0NIMl1DKD1bQ0hdW0NIXT0yKWMoYyhbQ0gzXSlbY0hdMyljKFtDSDNdKWMoYzM0KWMoLW41bltjSF1bY0hdYzVbQ0gzXSlbY0hdYyhuNClDKD1PKVtOSF1bQ0gyXUMoPU8pW09IXQ==

> <s_epik_cmdline>
J2VwaWtfcHl0aG9uJywgJy1waHQnLCAnMC41JywgJy1waCcsICc3LjUnLCAnLXRuJywgJzgnLCAnLW1hJywgJzUwMCcsICctaW1hZScsICc8aW5maWxlLm1hZT4nLCAnLW9tYWUnLCAnPG91dGZpbGUubWFlPic=

> <r_lp_tautomer_probability>
1

> <r_epik_Ionization_Penalty>
9.1078e-05

> <r_epik_Ionization_Penalty_Charging>
7.49142e-05

> <r_epik_Ionization_Penalty_Neutral>
1.61638e-05

> <r_epik_State_Penalty>
-0

> <r_epik_Charging_Adjusted_Penalty>
7.49142e-05

> <i_epik_Tot_Q>
-1

> <i_epik_Tot_abs_Q>
1

> <s_lp_Force_Field>
S-OPLS

> <r_lp_Energy>
56.1066

> <b_lp_Chiralities_Consistent>
1

> <s_lp_Variant>
ligprep_h3d.sdf:1268-1

> <ROCS_ShapeQuery>
_7L13

> <ROCS_TanimotoCombo>
0.820 

> <ROCS_ShapeTanimoto>
0.671 

> <ROCS_ColorTanimoto>
0.150 

> <ROCS_RefTversky>
0.793 

> <ROCS_RefColorTversky>
0.324 

> <ROCS_RefTverskyCombo>
1.117 

> <ROCS_FitTversky>
0.813 

> <ROCS_FitColorTversky>
0.217 

> <ROCS_FitTverskyCombo>
1.030 

> <ROCS_ColorScore>
-2.996

> <ROCS_Overlap>
1315.822

> <ROCS_Rank>
248                 

$$$$
ligprep_h3d.sdf:5066_1153
  -OEChem-08212117123D

 76 81  0     0  0  0  0  0  0999 V2000
  -15.7253   -6.6122  -22.7100 C   0  0  0  0  0  0  0  0  0  0  0  0
  -16.1594   -5.4125  -22.1497 C   0  0  0  0  0  0  0  0  0  0  0  0
  -16.0799   -6.9616  -24.0181 C   0  0  0  0  0  0  0  0  0  0  0  0
  -16.9594   -4.5256  -22.8759 C   0  0  0  0  0  0  0  0  0  0  0  0
  -21.6962   -5.2513  -32.4759 C   0  0  0  0  0  0  0  0  0  0  0  0
  -20.1090   -3.6934  -33.4197 C   0  0  0  0  0  0  0  0  0  0  0  0
  -21.1640   -6.2713  -33.2646 C   0  0  0  0  0  0  0  0  0  0  0  0
  -19.5768   -4.7134  -34.2084 C   0  0  0  0  0  0  0  0  0  0  0  0
  -17.4229   -6.1129  -26.0870 C   0  0  0  0  0  0  0  0  0  0  0  0
  -23.4970   -3.4087  -28.6075 C   0  0  0  0  0  0  0  0  0  0  0  0
  -20.8834   -3.6236  -29.6361 C   0  0  0  0  0  0  0  0  0  0  0  0
  -16.8858   -6.0834  -24.7696 C   0  0  0  0  0  0  0  0  0  0  0  0
  -22.4419   -3.7998  -27.7897 C   0  0  0  0  0  0  0  0  0  0  0  0
  -17.3061   -4.8881  -24.1823 C   0  0  0  0  0  0  0  0  0  0  0  0
  -21.1465   -3.9059  -28.3021 C   0  0  0  0  0  0  0  0  0  0  0  0
  -21.1687   -3.9623  -32.5535 C   0  0  0  0  0  0  0  0  0  0  0  0
  -23.2412   -3.1233  -29.9484 C   0  0  0  0  0  0  0  0  0  0  0  0
  -21.9423   -3.2302  -30.4588 C   0  0  0  0  0  0  0  0  0  0  0  0
  -20.1043   -6.0023  -34.1308 C   0  0  0  0  0  0  0  0  0  0  0  0
  -18.1457   -4.9566  -26.2705 C   0  0  0  0  0  0  0  0  0  0  0  0
  -18.8889   -4.5252  -27.4626 C   0  0  0  0  0  0  0  0  0  0  0  0
  -23.4039   -5.3779  -26.0746 C   0  0  0  0  0  0  0  0  0  0  0  0
  -22.9827   -2.9606  -25.4736 C   0  0  0  0  0  0  0  0  0  0  0  0
  -21.0072   -4.4854  -26.0346 C   0  0  0  0  0  0  0  0  0  0  0  0
  -23.5543   -5.7106  -24.5943 C   0  0  0  0  0  0  0  0  0  0  0  0
  -23.1350   -3.3105  -23.9975 C   0  0  0  0  0  0  0  0  0  0  0  0
  -22.4997   -4.1543  -26.3201 C   0  0  0  0  0  0  0  0  0  0  0  0
  -21.1111   -6.4700  -37.1496 C   0  0  0  0  0  0  0  0  0  0  0  0
  -20.6476   -8.8832  -36.9997 C   0  0  0  0  0  0  0  0  0  0  0  0
  -24.3428   -4.8048  -22.4106 C   0  0  0  0  0  0  0  0  0  0  0  0
  -25.5630   -2.6549  -30.1622 C   0  0  0  0  0  0  0  0  0  0  0  0
  -18.0691   -4.2242  -25.1163 N   0  0  0  0  0  0  0  0  0  0  0  0
  -20.2517   -4.3153  -27.2951 N   0  0  0  0  0  0  0  0  0  0  0  0
  -20.6922   -7.5907  -36.2698 N   0  0  0  0  0  0  0  0  0  0  0  0
  -24.0578   -4.4956  -23.8548 N   0  3  0  0  0  0  0  0  0  0  0  0
  -18.2295   -4.3947  -28.4897 O   0  0  0  0  0  0  0  0  0  0  0  0
  -18.2755   -6.7504  -35.8233 O   0  0  0  0  0  0  0  0  0  0  0  0
  -19.2657   -8.4603  -34.2807 O   0  0  0  0  0  0  0  0  0  0  0  0
  -21.6961   -2.9507  -31.7709 O   0  0  0  0  0  0  0  0  0  0  0  0
  -24.2697   -2.7401  -30.7566 O   0  0  0  0  0  0  0  0  0  0  0  0
  -19.4386   -7.2790  -35.1190 S   0  0  0  0  0  0  0  0  0  0  0  0
  -15.1033   -7.2853  -22.1257 H   0  0  0  0  0  0  0  0  0  0  0  0
  -15.8723   -5.1614  -21.1320 H   0  0  0  0  0  0  0  0  0  0  0  0
  -15.7341   -7.8999  -24.4428 H   0  0  0  0  0  0  0  0  0  0  0  0
  -17.2976   -3.5919  -22.4393 H   0  0  0  0  0  0  0  0  0  0  0  0
  -22.5212   -5.4670  -31.8025 H   0  0  0  0  0  0  0  0  0  0  0  0
  -19.6939   -2.6913  -33.4845 H   0  0  0  0  0  0  0  0  0  0  0  0
  -21.5827   -7.2717  -33.1963 H   0  0  0  0  0  0  0  0  0  0  0  0
  -18.7515   -4.4929  -34.8801 H   0  0  0  0  0  0  0  0  0  0  0  0
  -17.2918   -6.8986  -26.8192 H   0  0  0  0  0  0  0  0  0  0  0  0
  -24.5048   -3.3267  -28.2117 H   0  0  0  0  0  0  0  0  0  0  0  0
  -19.8893   -3.6972  -30.0603 H   0  0  0  0  0  0  0  0  0  0  0  0
  -23.0126   -6.2569  -26.6034 H   0  0  0  0  0  0  0  0  0  0  0  0
  -24.4037   -5.1979  -26.4926 H   0  0  0  0  0  0  0  0  0  0  0  0
  -23.9513   -2.6007  -25.8464 H   0  0  0  0  0  0  0  0  0  0  0  0
  -22.2918   -2.1135  -25.5737 H   0  0  0  0  0  0  0  0  0  0  0  0
  -20.5620   -3.8200  -25.2856 H   0  0  0  0  0  0  0  0  0  0  0  0
  -20.8605   -5.5164  -25.6921 H   0  0  0  0  0  0  0  0  0  0  0  0
  -24.2928   -6.5074  -24.4561 H   0  0  0  0  0  0  0  0  0  0  0  0
  -22.6073   -6.0122  -24.1345 H   0  0  0  0  0  0  0  0  0  0  0  0
  -22.1806   -3.5727  -23.5289 H   0  0  0  0  0  0  0  0  0  0  0  0
  -23.5878   -2.4753  -23.4527 H   0  0  0  0  0  0  0  0  0  0  0  0
  -21.1303   -5.5354  -36.5699 H   0  0  0  0  0  0  0  0  0  0  0  0
  -20.3982   -6.3708  -37.9814 H   0  0  0  0  0  0  0  0  0  0  0  0
  -22.1153   -6.6738  -37.5497 H   0  0  0  0  0  0  0  0  0  0  0  0
  -20.3338   -9.6825  -36.3122 H   0  0  0  0  0  0  0  0  0  0  0  0
  -21.6467   -9.1138  -37.3982 H   0  0  0  0  0  0  0  0  0  0  0  0
  -19.9295   -8.8108  -37.8298 H   0  0  0  0  0  0  0  0  0  0  0  0
  -23.4006   -5.0870  -21.9373 H   0  0  0  0  0  0  0  0  0  0  0  0
  -24.7586   -3.9055  -21.9521 H   0  0  0  0  0  0  0  0  0  0  0  0
  -25.0592   -5.6280  -22.3802 H   0  0  0  0  0  0  0  0  0  0  0  0
  -26.2904   -2.3395  -30.9142 H   0  0  0  0  0  0  0  0  0  0  0  0
  -25.5399   -1.9370  -29.3385 H   0  0  0  0  0  0  0  0  0  0  0  0
  -25.8430   -3.6386  -29.7778 H   0  0  0  0  0  0  0  0  0  0  0  0
  -18.5087   -3.3262  -24.9676 H   0  0  0  0  0  0  0  0  0  0  0  0
  -24.9586   -4.2330  -24.2778 H   0  0  0  0  0  0  0  0  0  0  0  0
  1  2  2  0  0  0  0
  1  3  1  0  0  0  0
  2  4  1  0  0  0  0
  3 12  2  0  0  0  0
  4 14  2  0  0  0  0
  5  7  1  0  0  0  0
  5 16  2  0  0  0  0
  6  8  2  0  0  0  0
  6 16  1  0  0  0  0
  7 19  2  0  0  0  0
  8 19  1  0  0  0  0
  9 12  1  0  0  0  0
  9 20  2  0  0  0  0
 10 13  1  0  0  0  0
 10 17  2  0  0  0  0
 11 15  1  0  0  0  0
 11 18  2  0  0  0  0
 12 14  1  0  0  0  0
 13 15  2  0  0  0  0
 13 27  1  0  0  0  0
 14 32  1  0  0  0  0
 15 33  1  0  0  0  0
 16 39  1  0  0  0  0
 17 18  1  0  0  0  0
 17 40  1  0  0  0  0
 18 39  1  0  0  0  0
 19 41  1  0  0  0  0
 20 21  1  0  0  0  0
 20 32  1  0  0  0  0
 21 33  1  0  0  0  0
 21 36  2  0  0  0  0
 22 25  1  0  0  0  0
 22 27  1  0  0  0  0
 23 26  1  0  0  0  0
 23 27  1  0  0  0  0
 24 27  1  0  0  0  0
 24 33  1  0  0  0  0
 25 35  1  0  0  0  0
 26 35  1  0  0  0  0
 28 34  1  0  0  0  0
 29 34  1  0  0  0  0
 30 35  1  0  0  0  0
 31 40  1  0  0  0  0
 34 41  1  0  0  0  0
 37 41  2  0  0  0  0
 38 41  2  0  0  0  0
  1 42  1  0  0  0  0
  2 43  1  0  0  0  0
  3 44  1  0  0  0  0
  4 45  1  0  0  0  0
  5 46  1  0  0  0  0
  6 47  1  0  0  0  0
  7 48  1  0  0  0  0
  8 49  1  0  0  0  0
  9 50  1  0  0  0  0
 10 51  1  0  0  0  0
 11 52  1  0  0  0  0
 22 53  1  0  0  0  0
 22 54  1  0  0  0  0
 23 55  1  0  0  0  0
 23 56  1  0  0  0  0
 24 57  1  0  0  0  0
 24 58  1  0  0  0  0
 25 59  1  0  0  0  0
 25 60  1  0  0  0  0
 26 61  1  0  0  0  0
 26 62  1  0  0  0  0
 28 63  1  0  0  0  0
 28 64  1  0  0  0  0
 28 65  1  0  0  0  0
 29 66  1  0  0  0  0
 29 67  1  0  0  0  0
 29 68  1  0  0  0  0
 30 69  1  0  0  0  0
 30 70  1  0  0  0  0
 30 71  1  0  0  0  0
 31 72  1  0  0  0  0
 31 73  1  0  0  0  0
 31 74  1  0  0  0  0
 32 75  1  0  0  0  0
 35 76  1  0  0  0  0
M  CHG  1  35   1
M  END
> <SMILES>
COc1cc2c(cc1Oc1ccc(cc1)S(=O)(=O)N(C)C)N(CC12CCN(C)CC1)C(=O)c1cc2ccccc2[nH]1

> <FORMATTED_ID>
H3D-009457

> <MOLFORMULA>
C31H34N4O5S

> <Exact Mass>
574.22

> <XLogP>
5.45

> <TPSA_NOPS>
103.6

> <s_m_source_file>
ligprep_h3d.sdf

> <i_m_source_file_index>
5066

> <i_lp_mmshare_version>
55123

> <i_f3d_flags>
0

> <s_epik_input>
W0NIM11OKFtDSDNdKVMoPU8pKD1PKWMoW2NIXVtjSF0xKVtjSF1bY0hdYzFPYyhjKFtjSF0yKU9bQ0gzXSlbY0hdYyhjMkMzNFtDSDJdW0NIMl1OKFtDSDNdKVtDSDJdW0NIMl00KU4oW0NIMl0zKUMoPU8pYyhbY0hdNSlbbkhdYyhjNTYpW2NIXVtjSF1bY0hdW2NIXTY=

> <s_epik_cmdline>
J2VwaWtfcHl0aG9uJywgJy1waHQnLCAnMC41JywgJy1waCcsICc3LjUnLCAnLXRuJywgJzgnLCAnLW1hJywgJzUwMCcsICctaW1hZScsICc8aW5maWxlLm1hZT4nLCAnLW9tYWUnLCAnPG91dGZpbGUubWFlPic=

> <r_lp_tautomer_probability>
1

> <r_epik_Ionization_Penalty>
0.0121631

> <r_epik_Ionization_Penalty_Charging>
0.012163

> <r_epik_Ionization_Penalty_Neutral>
1.84043e-07

> <r_epik_State_Penalty>
0.00940041

> <r_epik_Charging_Adjusted_Penalty>
0.0215634

> <i_epik_Tot_Q>
1

> <i_epik_Tot_abs_Q>
1

> <s_lp_Force_Field>
S-OPLS

> <r_lp_Energy>
87.1715

> <b_lp_Chiralities_Consistent>
1

> <s_lp_Variant>
ligprep_h3d.sdf:5066-1

> <ROCS_ShapeQuery>
_7L13

> <ROCS_TanimotoCombo>
0.663 

> <ROCS_ShapeTanimoto>
0.600 

> <ROCS_ColorTanimoto>
0.063 

> <ROCS_RefTversky>
0.793 

> <ROCS_RefColorTversky>
0.148 

> <ROCS_RefTverskyCombo>
0.941 

> <ROCS_FitTversky>
0.711 

> <ROCS_FitColorTversky>
0.099 

> <ROCS_FitTverskyCombo>
0.810 

> <ROCS_ColorScore>
-1.368

> <ROCS_Overlap>
1325.526

> <ROCS_Rank>
249                 

$$$$
ligprep_h3d.sdf:1329_883
  -OEChem-08212117123D

 67 72  0     1  0  0  0  0  0999 V2000
  -20.0555   -4.0116  -32.2306 C   0  0  0  0  0  0  0  0  0  0  0  0
  -20.6357   -6.3483  -32.0305 C   0  0  0  0  0  0  0  0  0  0  0  0
  -19.5168   -4.2535  -33.4943 C   0  0  0  0  0  0  0  0  0  0  0  0
  -20.0971   -6.5903  -33.2942 C   0  0  0  0  0  0  0  0  0  0  0  0
  -16.6402   -4.9857  -26.5887 C   0  0  0  0  0  0  0  0  0  0  0  0
  -23.0662   -4.2190  -28.8013 C   0  0  0  0  0  0  0  0  0  0  0  0
  -20.7446   -4.5008  -25.3661 C   0  0  0  0  0  0  0  0  0  0  0  0
  -17.1197   -6.3044  -26.4758 C   0  0  0  0  0  0  0  0  0  0  0  0
  -20.9402   -4.6585  -27.7706 C   0  0  0  0  0  0  0  0  0  0  0  0
  -20.6149   -5.0590  -31.4987 C   0  0  0  0  0  0  0  0  0  0  0  0
  -21.1761   -4.8068  -30.1818 C   0  0  0  0  0  0  0  0  0  0  0  0
  -19.5376   -5.5429  -34.0261 C   0  0  0  0  0  0  0  0  0  0  0  0
  -22.5170   -4.4636  -30.0625 C   0  0  0  0  0  0  0  0  0  0  0  0
  -20.3875   -4.9045  -29.0390 C   0  0  0  0  0  0  0  0  0  0  0  0
  -22.3009   -4.3097  -27.6419 C   0  0  0  0  0  0  0  0  0  0  0  0
  -20.1693   -4.7497  -26.6038 C   0  0  0  0  0  0  0  0  0  0  0  0
  -22.0833   -4.1663  -25.3403 C   0  0  0  0  0  0  0  0  0  0  0  0
  -17.7736   -4.2126  -26.6530 C   0  0  0  0  0  0  0  0  0  0  0  0
  -19.4455   -7.3558  -36.9800 C   0  0  0  0  0  0  0  0  0  0  0  0
  -22.7476   -3.8947  -24.0771 C   0  0  0  0  0  0  0  0  0  0  0  0
  -25.0463   -2.5473  -22.2911 C   0  0  0  0  0  0  0  0  0  0  0  0
  -26.2182   -3.1984  -22.9612 C   0  0  0  0  0  0  0  0  0  0  0  0
  -19.7298   -5.1142  -36.4875 C   0  0  0  0  0  0  0  0  0  0  0  0
  -18.9615   -5.8016  -35.3771 C   0  0  2  0  0  0  0  0  0  0  0  0
  -24.9174   -3.9592  -22.8207 C   0  0  0  0  0  0  0  0  0  0  0  0
  -23.4086   -4.3434  -31.2575 C   0  0  0  0  0  0  0  0  0  0  0  0
  -18.9468   -5.2800  -29.2462 C   0  0  0  0  0  0  0  0  0  0  0  0
  -17.9323   -2.7503  -26.7772 C   0  0  0  0  0  0  0  0  0  0  0  0
  -24.8702   -5.0766  -21.8144 C   0  0  0  0  0  0  0  0  0  0  0  0
  -18.4537   -6.3692  -26.4683 N   0  0  0  0  0  0  0  0  0  0  0  0
  -22.8619   -4.0675  -26.4421 N   0  0  0  0  0  0  0  0  0  0  0  0
  -18.8222   -5.0814  -26.5773 N   0  0  0  0  0  0  0  0  0  0  0  0
  -19.7818   -6.1237  -37.4932 N   0  0  0  0  0  0  0  0  0  0  0  0
  -24.1135   -4.1937  -23.9986 N   0  0  0  0  0  0  0  0  0  0  0  0
  -19.4802   -8.4288  -37.5656 O   0  0  0  0  0  0  0  0  0  0  0  0
  -22.1182   -3.3985  -23.1250 O   0  0  0  0  0  0  0  0  0  0  0  0
  -19.0647   -7.2111  -35.6697 O   0  0  0  0  0  0  0  0  0  0  0  0
  -24.3076   -6.2342  -22.4208 O   0  0  0  0  0  0  0  0  0  0  0  0
  -20.0312   -3.0011  -31.8295 H   0  0  0  0  0  0  0  0  0  0  0  0
  -21.0689   -7.1751  -31.4725 H   0  0  0  0  0  0  0  0  0  0  0  0
  -19.0820   -3.4317  -34.0570 H   0  0  0  0  0  0  0  0  0  0  0  0
  -20.1180   -7.5979  -33.7011 H   0  0  0  0  0  0  0  0  0  0  0  0
  -15.6154   -4.6454  -26.6187 H   0  0  0  0  0  0  0  0  0  0  0  0
  -24.1192   -3.9508  -28.7227 H   0  0  0  0  0  0  0  0  0  0  0  0
  -20.1697   -4.5646  -24.4463 H   0  0  0  0  0  0  0  0  0  0  0  0
  -16.5524   -7.2209  -26.3984 H   0  0  0  0  0  0  0  0  0  0  0  0
  -24.5430   -1.7488  -22.8238 H   0  0  0  0  0  0  0  0  0  0  0  0
  -25.0983   -2.3968  -21.2194 H   0  0  0  0  0  0  0  0  0  0  0  0
  -27.0582   -3.4860  -22.3400 H   0  0  0  0  0  0  0  0  0  0  0  0
  -26.5004   -2.8364  -23.9430 H   0  0  0  0  0  0  0  0  0  0  0  0
  -20.7582   -4.8522  -36.2169 H   0  0  0  0  0  0  0  0  0  0  0  0
  -19.2214   -4.2242  -36.8680 H   0  0  0  0  0  0  0  0  0  0  0  0
  -17.9016   -5.5320  -35.3787 H   0  0  0  0  0  0  0  0  0  0  0  0
  -23.3858   -3.3188  -31.6440 H   0  0  0  0  0  0  0  0  0  0  0  0
  -23.0936   -5.0269  -32.0545 H   0  0  0  0  0  0  0  0  0  0  0  0
  -24.4437   -4.6007  -31.0043 H   0  0  0  0  0  0  0  0  0  0  0  0
  -18.8389   -6.3669  -29.2118 H   0  0  0  0  0  0  0  0  0  0  0  0
  -18.5873   -4.9154  -30.2124 H   0  0  0  0  0  0  0  0  0  0  0  0
  -18.3158   -4.8334  -28.4726 H   0  0  0  0  0  0  0  0  0  0  0  0
  -17.9763   -2.4439  -27.8351 H   0  0  0  0  0  0  0  0  0  0  0  0
  -18.8523   -2.3907  -26.2856 H   0  0  0  0  0  0  0  0  0  0  0  0
  -17.0997   -2.2022  -26.3038 H   0  0  0  0  0  0  0  0  0  0  0  0
  -25.8773   -5.3275  -21.4580 H   0  0  0  0  0  0  0  0  0  0  0  0
  -24.2508   -4.8025  -20.9510 H   0  0  0  0  0  0  0  0  0  0  0  0
  -20.0341   -5.9555  -38.4619 H   0  0  0  0  0  0  0  0  0  0  0  0
  -24.5933   -4.5380  -24.8239 H   0  0  0  0  0  0  0  0  0  0  0  0
  -24.2957   -6.9269  -21.7413 H   0  0  0  0  0  0  0  0  0  0  0  0
  1  3  1  0  0  0  0
  1 10  2  0  0  0  0
  2  4  2  0  0  0  0
  2 10  1  0  0  0  0
  3 12  2  0  0  0  0
  4 12  1  0  0  0  0
  5  8  1  0  0  0  0
  5 18  2  0  0  0  0
  6 13  2  0  0  0  0
  6 15  1  0  0  0  0
  7 16  1  0  0  0  0
  7 17  2  0  0  0  0
  8 30  2  0  0  0  0
  9 14  1  0  0  0  0
  9 15  1  0  0  0  0
  9 16  2  0  0  0  0
 10 11  1  0  0  0  0
 11 13  1  0  0  0  0
 11 14  2  0  0  0  0
 12 24  1  0  0  0  0
 13 26  1  0  0  0  0
 14 27  1  0  0  0  0
 15 31  2  0  0  0  0
 16 32  1  0  0  0  0
 17 20  1  0  0  0  0
 17 31  1  0  0  0  0
 18 28  1  0  0  0  0
 18 32  1  0  0  0  0
 19 33  1  0  0  0  0
 19 35  2  0  0  0  0
 19 37  1  0  0  0  0
 20 34  1  0  0  0  0
 20 36  2  0  0  0  0
 21 22  1  0  0  0  0
 21 25  1  0  0  0  0
 22 25  1  0  0  0  0
 23 24  1  0  0  0  0
 23 33  1  0  0  0  0
 24 37  1  0  0  0  0
 25 29  1  0  0  0  0
 25 34  1  0  0  0  0
 29 38  1  0  0  0  0
 30 32  1  0  0  0  0
  1 39  1  0  0  0  0
  2 40  1  0  0  0  0
  3 41  1  0  0  0  0
  4 42  1  0  0  0  0
  5 43  1  0  0  0  0
  6 44  1  0  0  0  0
  7 45  1  0  0  0  0
  8 46  1  0  0  0  0
 21 47  1  0  0  0  0
 21 48  1  0  0  0  0
 22 49  1  0  0  0  0
 22 50  1  0  0  0  0
 23 51  1  0  0  0  0
 23 52  1  0  0  0  0
 24 53  1  0  0  0  0
 26 54  1  0  0  0  0
 26 55  1  0  0  0  0
 26 56  1  0  0  0  0
 27 57  1  0  0  0  0
 27 58  1  0  0  0  0
 27 59  1  0  0  0  0
 28 60  1  0  0  0  0
 28 61  1  0  0  0  0
 28 62  1  0  0  0  0
 29 63  1  0  0  0  0
 29 64  1  0  0  0  0
 33 65  1  0  0  0  0
 34 66  1  0  0  0  0
 38 67  1  0  0  0  0
M  END
> <SMILES>
Cc1cc2nc(cc(c2c(c1-c1ccc(cc1)C1CNC(=O)O1)C)-n1nccc1C)C(=O)NC1(CO)CC1

> <FORMATTED_ID>
H3D-009063

> <MOLFORMULA>
C29H29N5O4

> <Exact Mass>
511.22

> <XLogP>
3.33

> <TPSA_NOPS>
118.4

> <s_m_source_file>
ligprep_h3d.sdf

> <i_m_source_file_index>
1329

> <i_lp_mmshare_version>
55123

> <i_f3d_flags>
0

> <s_epik_input>
Tz1DKE8xKVtOSF1bQ0gyXVtDQEhdMWMoW2NIXVtjSF0yKVtjSF1bY0hdYzItYyhjKFtDSDNdKVtjSF0zKWMoW0NIM10pYyhjMzQpYygtbjVuW2NIXVtjSF1jNVtDSDNdKVtjSF1jKG40KUMoPU8pW05IXUM2KFtDSDJdW09IXSlbQ0gyXVtDSDJdNg==

> <s_epik_cmdline>
J2VwaWtfcHl0aG9uJywgJy1waHQnLCAnMC41JywgJy1waCcsICc3LjUnLCAnLXRuJywgJzgnLCAnLW1hJywgJzUwMCcsICctaW1hZScsICc8aW5maWxlLm1hZT4nLCAnLW9tYWUnLCAnPG91dGZpbGUubWFlPic=

> <r_lp_tautomer_probability>
1

> <r_epik_Ionization_Penalty>
2.31281e-05

> <r_epik_Ionization_Penalty_Charging>
0

> <r_epik_Ionization_Penalty_Neutral>
2.31281e-05

> <r_epik_State_Penalty>
-0

> <r_epik_Charging_Adjusted_Penalty>
0

> <i_epik_Tot_Q>
0

> <i_epik_Tot_abs_Q>
0

> <s_epik_Chemistry_Notes>
This compound has an ester and may undergo hydrolysis at high or low pH.

> <s_lp_Force_Field>
S-OPLS

> <r_lp_Energy>
47.9469

> <b_lp_Chiralities_Consistent>
1

> <s_lp_Variant>
ligprep_h3d.sdf:1329-1

> <ROCS_ShapeQuery>
_7L13

> <ROCS_TanimotoCombo>
0.723 

> <ROCS_ShapeTanimoto>
0.621 

> <ROCS_ColorTanimoto>
0.102 

> <ROCS_RefTversky>
0.793 

> <ROCS_RefColorTversky>
0.221 

> <ROCS_RefTverskyCombo>
1.014 

> <ROCS_FitTversky>
0.742 

> <ROCS_FitColorTversky>
0.158 

> <ROCS_FitTverskyCombo>
0.900 

> <ROCS_ColorScore>
-2.030

> <ROCS_Overlap>
1321.822

> <ROCS_Rank>
250                 

$$$$
ligprep_h3d.sdf:756_1027
  -OEChem-08212117123D

 78 84  0     1  0  0  0  0  0999 V2000
  -16.6949   -5.6688  -26.4536 C   0  0  0  0  0  0  0  0  0  0  0  0
  -23.0033   -4.4917  -28.8082 C   0  0  0  0  0  0  0  0  0  0  0  0
  -20.6655   -4.3874  -25.3740 C   0  0  0  0  0  0  0  0  0  0  0  0
  -16.6551   -4.2716  -26.6214 C   0  0  0  0  0  0  0  0  0  0  0  0
  -19.0276   -5.8015  -36.6676 C   0  0  0  0  0  0  0  0  0  0  0  0
  -20.8413   -4.6500  -27.7708 C   0  0  0  0  0  0  0  0  0  0  0  0
  -22.4295   -4.7160  -30.0621 C   0  0  0  0  0  0  0  0  0  0  0  0
  -20.2639   -4.8756  -29.0319 C   0  0  0  0  0  0  0  0  0  0  0  0
  -22.2330   -4.4542  -27.6492 C   0  0  0  0  0  0  0  0  0  0  0  0
  -20.0653   -4.6121  -26.6045 C   0  0  0  0  0  0  0  0  0  0  0  0
  -21.0581   -4.9082  -30.1745 C   0  0  0  0  0  0  0  0  0  0  0  0
  -22.0337   -4.2068  -25.3548 C   0  0  0  0  0  0  0  0  0  0  0  0
  -19.4805   -6.1781  -35.3954 C   0  0  0  0  0  0  0  0  0  0  0  0
  -18.0339   -5.9734  -26.4262 C   0  0  0  0  0  0  0  0  0  0  0  0
  -22.7403   -3.9627  -24.0710 C   0  0  0  0  0  0  0  0  0  0  0  0
  -19.0385   -7.8340  -24.8768 C   0  0  0  0  0  0  0  0  0  0  0  0
  -17.8448   -8.4369  -25.5490 C   0  0  0  0  0  0  0  0  0  0  0  0
  -19.1389   -6.5852  -32.8928 C   0  0  0  0  0  0  0  0  0  0  0  0
  -20.1110   -4.3851  -33.7426 C   0  0  0  0  0  0  0  0  0  0  0  0
  -25.6965   -2.9580  -22.8786 C   0  0  0  0  0  0  0  0  0  0  0  0
  -20.3477   -6.4909  -31.9583 C   0  0  0  0  0  0  0  0  0  0  0  0
  -20.0713   -4.0031  -32.2640 C   0  0  0  0  0  0  0  0  0  0  0  0
  -26.7099   -3.1868  -21.7745 C   0  0  0  0  0  0  0  0  0  0  0  0
  -25.9190   -5.3253  -22.6717 C   0  0  0  0  0  0  0  0  0  0  0  0
  -19.1679   -5.5600  -34.0436 C   0  0  0  0  0  0  0  0  0  0  0  0
  -18.6436   -7.3642  -26.2631 C   0  0  0  0  0  0  0  0  0  0  0  0
  -24.8736   -4.2338  -22.8328 C   0  0  1  0  0  0  0  0  0  0  0  0
  -23.3186   -4.7446  -31.2631 C   0  0  0  0  0  0  0  0  0  0  0  0
  -18.7926   -5.0929  -29.2409 C   0  0  0  0  0  0  0  0  0  0  0  0
  -27.3261   -5.3111  -20.5664 C   0  0  0  0  0  0  0  0  0  0  0  0
  -17.8722   -3.7264  -26.6955 N   0  0  0  0  0  0  0  0  0  0  0  0
  -19.5462   -6.6145  -37.5922 N   0  0  0  0  0  0  0  0  0  0  0  0
  -22.8182   -4.2358  -26.4564 N   0  0  0  0  0  0  0  0  0  0  0  0
  -20.2928   -7.2337  -35.4980 N   0  0  0  0  0  0  0  0  0  0  0  0
  -20.2830   -7.4345  -36.8255 N   0  0  0  0  0  0  0  0  0  0  0  0
  -18.6893   -4.7864  -26.5738 N   0  0  0  0  0  0  0  0  0  0  0  0
  -20.4922   -5.1317  -31.4284 N   0  0  0  0  0  0  0  0  0  0  0  0
  -24.0540   -4.4164  -23.9956 N   0  0  0  0  0  0  0  0  0  0  0  0
  -27.0371   -4.6629  -21.8830 N   0  3  1  0  0  0  0  0  0  0  0  0
  -22.1560   -3.3699  -23.1678 O   0  0  0  0  0  0  0  0  0  0  0  0
  -15.8654   -6.3553  -26.3651 H   0  0  0  0  0  0  0  0  0  0  0  0
  -24.0799   -4.3413  -28.7358 H   0  0  0  0  0  0  0  0  0  0  0  0
  -20.0871   -4.3521  -24.4550 H   0  0  0  0  0  0  0  0  0  0  0  0
  -15.7901   -3.6281  -26.6931 H   0  0  0  0  0  0  0  0  0  0  0  0
  -18.3660   -5.0010  -36.9639 H   0  0  0  0  0  0  0  0  0  0  0  0
  -19.9282   -8.4448  -24.7833 H   0  0  0  0  0  0  0  0  0  0  0  0
  -18.8625   -7.1718  -24.0377 H   0  0  0  0  0  0  0  0  0  0  0  0
  -16.8655   -8.1795  -25.1636 H   0  0  0  0  0  0  0  0  0  0  0  0
  -17.9281   -9.4548  -25.9101 H   0  0  0  0  0  0  0  0  0  0  0  0
  -18.2137   -6.4546  -32.2992 H   0  0  0  0  0  0  0  0  0  0  0  0
  -19.0750   -7.6126  -33.3033 H   0  0  0  0  0  0  0  0  0  0  0  0
  -21.1408   -4.6412  -34.0267 H   0  0  0  0  0  0  0  0  0  0  0  0
  -19.8309   -3.5140  -34.3484 H   0  0  0  0  0  0  0  0  0  0  0  0
  -26.2072   -2.8462  -23.8431 H   0  0  0  0  0  0  0  0  0  0  0  0
  -25.0920   -2.0637  -22.6999 H   0  0  0  0  0  0  0  0  0  0  0  0
  -21.2488   -6.7865  -32.5187 H   0  0  0  0  0  0  0  0  0  0  0  0
  -20.2360   -7.2068  -31.1278 H   0  0  0  0  0  0  0  0  0  0  0  0
  -19.0532   -3.6910  -31.9839 H   0  0  0  0  0  0  0  0  0  0  0  0
  -20.7305   -3.1363  -32.1044 H   0  0  0  0  0  0  0  0  0  0  0  0
  -26.2730   -3.0061  -20.7863 H   0  0  0  0  0  0  0  0  0  0  0  0
  -27.6345   -2.6166  -21.8978 H   0  0  0  0  0  0  0  0  0  0  0  0
  -26.3628   -5.6355  -23.6239 H   0  0  0  0  0  0  0  0  0  0  0  0
  -25.5483   -6.1990  -22.1268 H   0  0  0  0  0  0  0  0  0  0  0  0
  -18.1287   -5.1352  -34.1524 H   0  0  0  0  0  0  0  0  0  0  0  0
  -19.2745   -7.6954  -27.0855 H   0  0  0  0  0  0  0  0  0  0  0  0
  -24.2070   -4.2236  -21.9626 H   0  0  0  0  0  0  0  0  0  0  0  0
  -23.4129   -3.7392  -31.6886 H   0  0  0  0  0  0  0  0  0  0  0  0
  -22.9205   -5.4155  -32.0338 H   0  0  0  0  0  0  0  0  0  0  0  0
  -24.3195   -5.1115  -31.0053 H   0  0  0  0  0  0  0  0  0  0  0  0
  -18.5611   -6.1592  -29.1722 H   0  0  0  0  0  0  0  0  0  0  0  0
  -18.4813   -4.7231  -30.2223 H   0  0  0  0  0  0  0  0  0  0  0  0
  -18.2100   -4.5524  -28.4889 H   0  0  0  0  0  0  0  0  0  0  0  0
  -26.4273   -5.2342  -19.9518 H   0  0  0  0  0  0  0  0  0  0  0  0
  -28.1618   -4.7787  -20.1081 H   0  0  0  0  0  0  0  0  0  0  0  0
  -27.5829   -6.3549  -20.7570 H   0  0  0  0  0  0  0  0  0  0  0  0
  -20.8191   -8.1886  -37.2397 H   0  0  0  0  0  0  0  0  0  0  0  0
  -24.4847   -4.8442  -24.8153 H   0  0  0  0  0  0  0  0  0  0  0  0
  -27.8918   -4.7426  -22.4515 H   0  0  0  0  0  0  0  0  0  0  0  0
  1  4  1  0  0  0  0
  1 14  2  0  0  0  0
  2  7  2  0  0  0  0
  2  9  1  0  0  0  0
  3 10  1  0  0  0  0
  3 12  2  0  0  0  0
  4 31  2  0  0  0  0
  5 13  1  0  0  0  0
  5 32  2  0  0  0  0
  6  8  1  0  0  0  0
  6  9  1  0  0  0  0
  6 10  2  0  0  0  0
  7 11  1  0  0  0  0
  7 28  1  0  0  0  0
  8 11  2  0  0  0  0
  8 29  1  0  0  0  0
  9 33  2  0  0  0  0
 10 36  1  0  0  0  0
 11 37  1  0  0  0  0
 12 15  1  0  0  0  0
 12 33  1  0  0  0  0
 13 25  1  0  0  0  0
 13 34  2  0  0  0  0
 14 26  1  0  0  0  0
 14 36  1  0  0  0  0
 15 38  1  0  0  0  0
 15 40  2  0  0  0  0
 16 17  1  0  0  0  0
 16 26  1  0  0  0  0
 17 26  1  0  0  0  0
 18 21  1  0  0  0  0
 18 25  1  0  0  0  0
 19 22  1  0  0  0  0
 19 25  1  0  0  0  0
 20 23  1  0  0  0  0
 20 27  1  0  0  0  0
 21 37  1  0  0  0  0
 22 37  1  0  0  0  0
 23 39  1  0  0  0  0
 24 27  1  0  0  0  0
 24 39  1  0  0  0  0
 27 38  1  0  0  0  0
 30 39  1  0  0  0  0
 31 36  1  0  0  0  0
 32 35  1  0  0  0  0
 34 35  1  0  0  0  0
  1 41  1  0  0  0  0
  2 42  1  0  0  0  0
  3 43  1  0  0  0  0
  4 44  1  0  0  0  0
  5 45  1  0  0  0  0
 16 46  1  0  0  0  0
 16 47  1  0  0  0  0
 17 48  1  0  0  0  0
 17 49  1  0  0  0  0
 18 50  1  0  0  0  0
 18 51  1  0  0  0  0
 19 52  1  0  0  0  0
 19 53  1  0  0  0  0
 20 54  1  0  0  0  0
 20 55  1  0  0  0  0
 21 56  1  0  0  0  0
 21 57  1  0  0  0  0
 22 58  1  0  0  0  0
 22 59  1  0  0  0  0
 23 60  1  0  0  0  0
 23 61  1  0  0  0  0
 24 62  1  0  0  0  0
 24 63  1  0  0  0  0
 25 64  1  0  0  0  0
 26 65  1  0  0  0  0
 27 66  1  0  0  0  0
 28 67  1  0  0  0  0
 28 68  1  0  0  0  0
 28 69  1  0  0  0  0
 29 70  1  0  0  0  0
 29 71  1  0  0  0  0
 29 72  1  0  0  0  0
 30 73  1  0  0  0  0
 30 74  1  0  0  0  0
 30 75  1  0  0  0  0
 35 76  1  0  0  0  0
 38 77  1  0  0  0  0
 39 78  1  0  0  0  0
M  CHG  1  39   1
M  END
> <SMILES>
CN1CC[C@@H](C1)NC(=O)c1cc(c2c(c(c(cc2n1)C)N1CCC(CC1)c1cnn[nH]1)C)-n1nccc1C1CC1

> <FORMATTED_ID>
H3D-005035

> <MOLFORMULA>
C30H37N9O

> <Exact Mass>
539.31

> <XLogP>
3.35

> <TPSA_NOPS>
107.9

> <s_m_source_file>
ligprep_h3d.sdf

> <i_m_source_file_index>
756

> <i_lp_mmshare_version>
55123

> <i_f3d_flags>
0

> <s_epik_input>
W0NIMl0xW0NIMl1bQ0hdMWMyW2NIXVtjSF1ubjItYzNbY0hdYyhDKD1PKVtOSF1bQ0BIXShbQ0gyXTQpW0NIMl1bQ0gyXU40W0NIM10pbmMoYzM1KVtjSF1jKFtDSDNdKWMoYzVbQ0gzXSlONltDSDJdW0NIMl1bQ0hdKFtDSDJdW0NIMl02KWM3W2NIXW5uW25IXTc=

> <s_epik_cmdline>
J2VwaWtfcHl0aG9uJywgJy1waHQnLCAnMC41JywgJy1waCcsICc3LjUnLCAnLXRuJywgJzgnLCAnLW1hJywgJzUwMCcsICctaW1hZScsICc8aW5maWxlLm1hZT4nLCAnLW9tYWUnLCAnPG91dGZpbGUubWFlPic=

> <r_lp_tautomer_probability>
0.652348

> <r_epik_Ionization_Penalty>
0.0855613

> <r_epik_Ionization_Penalty_Charging>
0.019148

> <r_epik_Ionization_Penalty_Neutral>
0.0664133

> <r_epik_State_Penalty>
0.0718071

> <r_epik_Charging_Adjusted_Penalty>
0.0909551

> <i_epik_Tot_Q>
1

> <i_epik_Tot_abs_Q>
1

> <s_lp_Force_Field>
S-OPLS

> <r_lp_Energy>
77.262

> <b_lp_Chiralities_Consistent>
1

> <s_lp_Variant>
ligprep_h3d.sdf:756-1

> <ROCS_ShapeQuery>
_7L13

> <ROCS_TanimotoCombo>
0.694 

> <ROCS_ShapeTanimoto>
0.601 

> <ROCS_ColorTanimoto>
0.092 

> <ROCS_RefTversky>
0.792 

> <ROCS_RefColorTversky>
0.218 

> <ROCS_RefTverskyCombo>
1.010 

> <ROCS_FitTversky>
0.714 

> <ROCS_FitColorTversky>
0.138 

> <ROCS_FitTverskyCombo>
0.852 

> <ROCS_ColorScore>
-2.025

> <ROCS_Overlap>
1324.112

> <ROCS_Rank>
251                 

$$$$
ligprep_h3d.sdf:5074_1367
  -OEChem-08212117123D

 64 69  0     0  0  0  0  0  0999 V2000
  -19.1275   -4.9927  -34.9892 C   0  0  0  0  0  0  0  0  0  0  0  0
  -19.3128   -6.3494  -34.7306 C   0  0  0  0  0  0  0  0  0  0  0  0
  -19.6010   -4.0226  -34.0983 C   0  0  0  0  0  0  0  0  0  0  0  0
  -19.9749   -6.7796  -33.5772 C   0  0  0  0  0  0  0  0  0  0  0  0
  -25.1347   -5.6825  -24.3858 C   0  0  0  0  0  0  0  0  0  0  0  0
  -25.7510   -6.5389  -23.4802 C   0  0  0  0  0  0  0  0  0  0  0  0
  -20.8676   -3.7442  -31.8350 C   0  0  0  0  0  0  0  0  0  0  0  0
  -20.9975   -4.1243  -24.9699 C   0  0  0  0  0  0  0  0  0  0  0  0
  -23.0846   -3.9150  -26.8459 C   0  0  0  0  0  0  0  0  0  0  0  0
  -25.8953   -3.8430  -23.0842 C   0  0  0  0  0  0  0  0  0  0  0  0
  -20.2716   -4.4323  -32.9288 C   0  0  0  0  0  0  0  0  0  0  0  0
  -20.7415   -4.3154  -26.3229 C   0  0  0  0  0  0  0  0  0  0  0  0
  -20.4428   -5.7986  -32.6957 C   0  0  0  0  0  0  0  0  0  0  0  0
  -21.7873   -4.2067  -27.2501 C   0  0  0  0  0  0  0  0  0  0  0  0
  -25.2035   -4.3075  -24.1912 C   0  0  0  0  0  0  0  0  0  0  0  0
  -22.2965   -3.8231  -24.5549 C   0  0  0  0  0  0  0  0  0  0  0  0
  -23.3335   -3.7211  -25.4868 C   0  0  0  0  0  0  0  0  0  0  0  0
  -21.3798   -4.6884  -30.9753 C   0  0  0  0  0  0  0  0  0  0  0  0
  -26.4181   -5.9745  -22.4050 C   0  0  0  0  0  0  0  0  0  0  0  0
  -22.0905   -4.4764  -29.7050 C   0  0  0  0  0  0  0  0  0  0  0  0
  -19.0856   -6.1867  -26.7323 C   0  0  0  0  0  0  0  0  0  0  0  0
  -18.2485   -3.7752  -26.6800 C   0  0  0  0  0  0  0  0  0  0  0  0
  -19.8411   -4.5284  -28.4931 C   0  0  0  0  0  0  0  0  0  0  0  0
  -18.3772   -6.4301  -25.4057 C   0  0  0  0  0  0  0  0  0  0  0  0
  -17.5171   -4.0766  -25.3773 C   0  0  0  0  0  0  0  0  0  0  0  0
  -19.4367   -4.7057  -26.9981 C   0  0  0  0  0  0  0  0  0  0  0  0
  -16.0072   -5.9498  -26.1246 C   0  0  0  0  0  0  0  0  0  0  0  0
  -22.4139   -2.2985  -22.7330 C   0  0  0  0  0  0  0  0  0  0  0  0
  -26.5065   -4.6439  -22.1829 N   0  0  0  0  0  0  0  0  0  0  0  0
  -21.1184   -5.9245  -31.5028 N   0  0  0  0  0  0  0  0  0  0  0  0
  -21.3101   -4.4177  -28.5575 N   0  0  0  0  0  0  0  0  0  0  0  0
  -17.1728   -5.5371  -25.2656 N   0  3  0  0  0  0  0  0  0  0  0  0
  -23.3128   -4.3867  -29.7816 O   0  0  0  0  0  0  0  0  0  0  0  0
  -24.6005   -3.4314  -25.0759 O   0  0  0  0  0  0  0  0  0  0  0  0
  -22.5414   -3.6301  -23.2268 O   0  0  0  0  0  0  0  0  0  0  0  0
  -27.0171   -6.7898  -21.5231 F   0  0  0  0  0  0  0  0  0  0  0  0
  -18.6088   -4.6828  -35.8926 H   0  0  0  0  0  0  0  0  0  0  0  0
  -18.9372   -7.0857  -35.4364 H   0  0  0  0  0  0  0  0  0  0  0  0
  -19.4493   -2.9682  -34.3119 H   0  0  0  0  0  0  0  0  0  0  0  0
  -20.1194   -7.8358  -33.3764 H   0  0  0  0  0  0  0  0  0  0  0  0
  -24.6029   -6.0913  -25.2402 H   0  0  0  0  0  0  0  0  0  0  0  0
  -25.7109   -7.6141  -23.6119 H   0  0  0  0  0  0  0  0  0  0  0  0
  -20.9143   -2.6722  -31.6961 H   0  0  0  0  0  0  0  0  0  0  0  0
  -20.1967   -4.2084  -24.2374 H   0  0  0  0  0  0  0  0  0  0  0  0
  -23.9059   -3.8334  -27.5477 H   0  0  0  0  0  0  0  0  0  0  0  0
  -25.9810   -2.7796  -22.8837 H   0  0  0  0  0  0  0  0  0  0  0  0
  -18.4617   -6.5834  -27.5522 H   0  0  0  0  0  0  0  0  0  0  0  0
  -20.0051   -6.7984  -26.7519 H   0  0  0  0  0  0  0  0  0  0  0  0
  -18.5960   -2.7216  -26.6448 H   0  0  0  0  0  0  0  0  0  0  0  0
  -17.5166   -3.7917  -27.5139 H   0  0  0  0  0  0  0  0  0  0  0  0
  -19.4144   -3.6225  -28.9394 H   0  0  0  0  0  0  0  0  0  0  0  0
  -19.5381   -5.3793  -29.1143 H   0  0  0  0  0  0  0  0  0  0  0  0
  -19.0533   -6.2028  -24.5660 H   0  0  0  0  0  0  0  0  0  0  0  0
  -18.0337   -7.4720  -25.3001 H   0  0  0  0  0  0  0  0  0  0  0  0
  -16.5773   -3.5045  -25.2845 H   0  0  0  0  0  0  0  0  0  0  0  0
  -18.1571   -3.8233  -24.5146 H   0  0  0  0  0  0  0  0  0  0  0  0
  -16.3026   -5.8294  -27.1685 H   0  0  0  0  0  0  0  0  0  0  0  0
  -15.1643   -5.3016  -25.8778 H   0  0  0  0  0  0  0  0  0  0  0  0
  -15.7791   -6.9933  -25.8992 H   0  0  0  0  0  0  0  0  0  0  0  0
  -22.6356   -2.2831  -21.6631 H   0  0  0  0  0  0  0  0  0  0  0  0
  -23.1049   -1.6426  -23.2686 H   0  0  0  0  0  0  0  0  0  0  0  0
  -21.3894   -1.9557  -22.8955 H   0  0  0  0  0  0  0  0  0  0  0  0
  -21.3826   -6.8042  -31.0809 H   0  0  0  0  0  0  0  0  0  0  0  0
  -16.8371   -5.6716  -24.2671 H   0  0  0  0  0  0  0  0  0  0  0  0
  1  2  2  0  0  0  0
  1  3  1  0  0  0  0
  2  4  1  0  0  0  0
  3 11  2  0  0  0  0
  4 13  2  0  0  0  0
  5  6  1  0  0  0  0
  5 15  2  0  0  0  0
  6 19  2  0  0  0  0
  7 11  1  0  0  0  0
  7 18  2  0  0  0  0
  8 12  1  0  0  0  0
  8 16  2  0  0  0  0
  9 14  1  0  0  0  0
  9 17  2  0  0  0  0
 10 15  1  0  0  0  0
 10 29  2  0  0  0  0
 11 13  1  0  0  0  0
 12 14  2  0  0  0  0
 12 26  1  0  0  0  0
 13 30  1  0  0  0  0
 14 31  1  0  0  0  0
 15 34  1  0  0  0  0
 16 17  1  0  0  0  0
 16 35  1  0  0  0  0
 17 34  1  0  0  0  0
 18 20  1  0  0  0  0
 18 30  1  0  0  0  0
 19 29  1  0  0  0  0
 19 36  1  0  0  0  0
 20 31  1  0  0  0  0
 20 33  2  0  0  0  0
 21 24  1  0  0  0  0
 21 26  1  0  0  0  0
 22 25  1  0  0  0  0
 22 26  1  0  0  0  0
 23 26  1  0  0  0  0
 23 31  1  0  0  0  0
 24 32  1  0  0  0  0
 25 32  1  0  0  0  0
 27 32  1  0  0  0  0
 28 35  1  0  0  0  0
  1 37  1  0  0  0  0
  2 38  1  0  0  0  0
  3 39  1  0  0  0  0
  4 40  1  0  0  0  0
  5 41  1  0  0  0  0
  6 42  1  0  0  0  0
  7 43  1  0  0  0  0
  8 44  1  0  0  0  0
  9 45  1  0  0  0  0
 10 46  1  0  0  0  0
 21 47  1  0  0  0  0
 21 48  1  0  0  0  0
 22 49  1  0  0  0  0
 22 50  1  0  0  0  0
 23 51  1  0  0  0  0
 23 52  1  0  0  0  0
 24 53  1  0  0  0  0
 24 54  1  0  0  0  0
 25 55  1  0  0  0  0
 25 56  1  0  0  0  0
 27 57  1  0  0  0  0
 27 58  1  0  0  0  0
 27 59  1  0  0  0  0
 28 60  1  0  0  0  0
 28 61  1  0  0  0  0
 28 62  1  0  0  0  0
 30 63  1  0  0  0  0
 32 64  1  0  0  0  0
M  CHG  1  32   1
M  END
> <SMILES>
COc1cc2c(cc1Oc1ccc(nc1)F)N(CC12CCN(C)CC1)C(=O)c1cc2ccccc2[nH]1

> <FORMATTED_ID>
H3D-012428

> <MOLFORMULA>
C28H27FN4O3

> <Exact Mass>
486.21

> <XLogP>
5.58

> <TPSA_NOPS>
70.7

> <s_m_source_file>
ligprep_h3d.sdf

> <i_m_source_file_index>
5074

> <i_lp_mmshare_version>
55123

> <i_f3d_flags>
0

> <s_epik_input>
W2NIXTFuYyhGKVtjSF1bY0hdYzFPYyhjKFtjSF0yKU9bQ0gzXSlbY0hdYyhjMkMzNFtDSDJdW0NIMl1OKFtDSDNdKVtDSDJdW0NIMl00KU4oW0NIMl0zKUMoPU8pYyhbY0hdNSlbbkhdYyhjNTYpW2NIXVtjSF1bY0hdW2NIXTY=

> <s_epik_cmdline>
J2VwaWtfcHl0aG9uJywgJy1waHQnLCAnMC41JywgJy1waCcsICc3LjUnLCAnLXRuJywgJzgnLCAnLW1hJywgJzUwMCcsICctaW1hZScsICc8aW5maWxlLm1hZT4nLCAnLW9tYWUnLCAnPG91dGZpbGUubWFlPic=

> <r_lp_tautomer_probability>
1

> <r_epik_Ionization_Penalty>
0.0121631

> <r_epik_Ionization_Penalty_Charging>
0.012163

> <r_epik_Ionization_Penalty_Neutral>
1.88688e-07

> <r_epik_State_Penalty>
0.00940041

> <r_epik_Charging_Adjusted_Penalty>
0.0215634

> <i_epik_Tot_Q>
1

> <i_epik_Tot_abs_Q>
1

> <s_lp_Force_Field>
S-OPLS

> <r_lp_Energy>
85.3661

> <b_lp_Chiralities_Consistent>
1

> <s_lp_Variant>
ligprep_h3d.sdf:5074-1

> <ROCS_ShapeQuery>
_7L13

> <ROCS_TanimotoCombo>
0.770 

> <ROCS_ShapeTanimoto>
0.648 

> <ROCS_ColorTanimoto>
0.122 

> <ROCS_RefTversky>
0.792 

> <ROCS_RefColorTversky>
0.260 

> <ROCS_RefTverskyCombo>
1.053 

> <ROCS_FitTversky>
0.781 

> <ROCS_FitColorTversky>
0.187 

> <ROCS_FitTverskyCombo>
0.967 

> <ROCS_ColorScore>
-2.396

> <ROCS_Overlap>
1316.940

> <ROCS_Rank>
252                 

$$$$
ligprep_h3d.sdf:990_778
  -OEChem-08212117123D

 57 62  0     1  0  0  0  0  0999 V2000
  -21.0745   -5.2439  -29.4821 C   0  0  0  0  0  0  0  0  0  0  0  0
  -21.8027   -4.4403  -30.3635 C   0  0  0  0  0  0  0  0  0  0  0  0
  -21.1246   -4.9540  -28.0986 C   0  0  0  0  0  0  0  0  0  0  0  0
  -21.9257   -3.9043  -27.5752 C   0  0  0  0  0  0  0  0  0  0  0  0
  -22.5425   -3.3974  -29.8483 C   0  0  0  0  0  0  0  0  0  0  0  0
  -22.6298   -3.0901  -28.4912 C   0  0  0  0  0  0  0  0  0  0  0  0
  -22.0261   -4.3554  -31.7507 C   0  0  0  0  0  0  0  0  0  0  0  0
  -18.8574   -3.9667  -26.3161 C   0  0  0  0  0  0  0  0  0  0  0  0
  -19.2931   -6.0795  -24.9420 C   0  0  0  0  0  0  0  0  0  0  0  0
  -17.0643   -5.3256  -25.7295 C   0  0  0  0  0  0  0  0  0  0  0  0
  -19.7569   -7.3576  -35.6385 C   0  0  0  0  0  0  0  0  0  0  0  0
  -20.2972   -5.8193  -27.1729 C   0  0  0  0  0  0  0  0  0  0  0  0
  -23.0392   -2.8338  -25.6216 C   0  0  0  0  0  0  0  0  0  0  0  0
  -19.1728   -5.1561  -35.6299 C   0  0  0  0  0  0  0  0  0  0  0  0
  -21.2011   -4.5007  -25.2602 C   0  0  2  0  0  0  0  0  0  0  0  0
  -19.7267   -5.5017  -34.2629 C   0  0  1  0  0  0  0  0  0  0  0  0
  -23.4262   -3.3601  -24.2380 C   0  0  2  0  0  0  0  0  0  0  0  0
  -21.0653   -3.7882  -23.8831 C   0  0  1  0  0  0  0  0  0  0  0  0
  -19.8813   -5.0493  -25.8928 C   0  0  2  0  0  0  0  0  0  0  0  0
  -24.5203   -2.5014  -23.6145 C   0  0  0  0  0  0  0  0  0  0  0  0
  -20.1374   -2.5813  -23.8036 C   0  0  0  0  0  0  0  0  0  0  0  0
  -20.7456   -4.5038  -33.7492 C   0  0  0  0  0  0  0  0  0  0  0  0
  -22.8360   -3.3425  -32.0732 N   0  0  0  0  0  0  0  0  0  0  0  0
  -17.5934   -4.3608  -26.4803 N   0  5  0  0  0  0  0  0  0  0  0  0
  -17.9151   -6.1036  -24.9499 N   0  0  0  0  0  0  0  0  0  0  0  0
  -20.2731   -6.8027  -34.4880 N   0  0  0  0  0  0  0  0  0  0  0  0
  -21.9818   -3.6711  -26.1968 N   0  0  3  0  0  0  0  0  0  0  0  0
  -19.2313   -2.8314  -26.6106 O   0  0  0  0  0  0  0  0  0  0  0  0
  -19.9685   -6.8633  -24.2780 O   0  0  0  0  0  0  0  0  0  0  0  0
  -15.8552   -5.5718  -25.7098 O   0  0  0  0  0  0  0  0  0  0  0  0
  -19.9262   -8.4995  -36.0420 O   0  0  0  0  0  0  0  0  0  0  0  0
  -23.1592   -2.7354  -30.8654 O   0  0  0  0  0  0  0  0  0  0  0  0
  -18.9855   -6.4234  -36.2840 O   0  0  0  0  0  0  0  0  0  0  0  0
  -22.3230   -3.3576  -23.3394 O   0  0  0  0  0  0  0  0  0  0  0  0
  -21.5414   -5.1302  -32.7302 O   0  0  0  0  0  0  0  0  0  0  0  0
  -23.3288   -2.0104  -28.1180 F   0  0  0  0  0  0  0  0  0  0  0  0
  -20.4703   -6.0659  -29.8556 H   0  0  0  0  0  0  0  0  0  0  0  0
  -20.8911   -6.7079  -26.9196 H   0  0  0  0  0  0  0  0  0  0  0  0
  -19.4057   -6.1806  -27.7027 H   0  0  0  0  0  0  0  0  0  0  0  0
  -23.9532   -2.8633  -26.2241 H   0  0  0  0  0  0  0  0  0  0  0  0
  -22.6818   -1.7993  -25.5641 H   0  0  0  0  0  0  0  0  0  0  0  0
  -19.8551   -4.5551  -36.2405 H   0  0  0  0  0  0  0  0  0  0  0  0
  -18.2073   -4.6462  -35.5614 H   0  0  0  0  0  0  0  0  0  0  0  0
  -21.8419   -5.3756  -25.0655 H   0  0  0  0  0  0  0  0  0  0  0  0
  -18.9130   -5.6182  -33.5380 H   0  0  0  0  0  0  0  0  0  0  0  0
  -23.8070   -4.3867  -24.3144 H   0  0  0  0  0  0  0  0  0  0  0  0
  -20.6869   -4.5190  -23.1586 H   0  0  0  0  0  0  0  0  0  0  0  0
  -24.1775   -1.4711  -23.5222 H   0  0  0  0  0  0  0  0  0  0  0  0
  -24.7722   -2.8809  -22.6245 H   0  0  0  0  0  0  0  0  0  0  0  0
  -25.4124   -2.5234  -24.2401 H   0  0  0  0  0  0  0  0  0  0  0  0
  -20.4636   -1.8145  -24.5057 H   0  0  0  0  0  0  0  0  0  0  0  0
  -19.1187   -2.8785  -24.0515 H   0  0  0  0  0  0  0  0  0  0  0  0
  -20.1507   -2.1678  -22.7955 H   0  0  0  0  0  0  0  0  0  0  0  0
  -21.4041   -4.1763  -34.5592 H   0  0  0  0  0  0  0  0  0  0  0  0
  -20.2452   -3.6311  -33.3190 H   0  0  0  0  0  0  0  0  0  0  0  0
  -17.4711   -6.7625  -24.3163 H   0  0  0  0  0  0  0  0  0  0  0  0
  -20.9498   -7.2566  -33.8824 H   0  0  0  0  0  0  0  0  0  0  0  0
  1  2  2  0  0  0  0
  1  3  1  0  0  0  0
  2  5  1  0  0  0  0
  2  7  1  0  0  0  0
  3  4  2  0  0  0  0
  3 12  1  0  0  0  0
  4  6  1  0  0  0  0
  4 27  1  0  0  0  0
  5  6  2  0  0  0  0
  5 32  1  0  0  0  0
  6 36  1  0  0  0  0
  7 23  2  0  0  0  0
  7 35  1  0  0  0  0
  8 19  1  0  0  0  0
  8 24  1  0  0  0  0
  8 28  2  0  0  0  0
  9 19  1  0  0  0  0
  9 25  1  0  0  0  0
  9 29  2  0  0  0  0
 10 24  1  0  0  0  0
 10 25  1  0  0  0  0
 10 30  2  0  0  0  0
 11 26  1  0  0  0  0
 11 31  2  0  0  0  0
 11 33  1  0  0  0  0
 12 19  1  0  0  0  0
 13 17  1  0  0  0  0
 13 27  1  0  0  0  0
 14 16  1  0  0  0  0
 14 33  1  0  0  0  0
 15 18  1  0  0  0  0
 15 19  1  0  0  0  0
 15 27  1  0  0  0  0
 16 22  1  0  0  0  0
 16 26  1  0  0  0  0
 17 20  1  0  0  0  0
 17 34  1  0  0  0  0
 18 21  1  0  0  0  0
 18 34  1  0  0  0  0
 22 35  1  0  0  0  0
 23 32  1  0  0  0  0
  1 37  1  0  0  0  0
 12 38  1  0  0  0  0
 12 39  1  0  0  0  0
 13 40  1  0  0  0  0
 13 41  1  0  0  0  0
 14 42  1  0  0  0  0
 14 43  1  0  0  0  0
 15 44  1  0  0  0  0
 16 45  1  0  0  0  0
 17 46  1  0  0  0  0
 18 47  1  0  0  0  0
 20 48  1  0  0  0  0
 20 49  1  0  0  0  0
 20 50  1  0  0  0  0
 21 51  1  0  0  0  0
 21 52  1  0  0  0  0
 21 53  1  0  0  0  0
 22 54  1  0  0  0  0
 22 55  1  0  0  0  0
 25 56  1  0  0  0  0
 26 57  1  0  0  0  0
M  CHG  1  24  -1
M  END
> <SMILES>
C[C@H]1CN2[C@H]([C@@H](C)O1)C1(Cc3cc4c(noc4c(c32)F)OC[C@@H]2COC(=O)N2)C(=O)NC(=O)NC1=O

> <FORMATTED_ID>
H3D-006110

> <MOLFORMULA>
C22H22FN5O8

> <Exact Mass>
503.15

> <XLogP>
-0.35

> <TPSA_NOPS>
161.6

> <s_m_source_file>
ligprep_h3d.sdf

> <i_m_source_file_index>
990

> <i_lp_mmshare_version>
55123

> <i_f3d_flags>
0

> <s_epik_input>
Tz1DMVtOSF1DKD1PKVtOSF1DKD1PKUMxMltDQEBIXTNOKFtDSDJdW0NASF0oW0NIM10pT1tDQEBIXTNbQ0gzXSljNGMoW0NIMl0yKVtjSF1jNWMoYzRGKW9uYzVPW0NIMl1bQ0BASF02W0NIMl1PQyg9TylbTkhdNg==

> <s_epik_cmdline>
J2VwaWtfcHl0aG9uJywgJy1waHQnLCAnMC41JywgJy1waCcsICc3LjUnLCAnLXRuJywgJzgnLCAnLW1hJywgJzUwMCcsICctaW1hZScsICc8aW5maWxlLm1hZT4nLCAnLW9tYWUnLCAnPG91dGZpbGUubWFlPic=

> <r_lp_tautomer_probability>
1

> <r_epik_Ionization_Penalty>
0.455392

> <r_epik_Ionization_Penalty_Charging>
0.455373

> <r_epik_Ionization_Penalty_Neutral>
1.8759e-05

> <r_epik_State_Penalty>
0.458483

> <r_epik_Charging_Adjusted_Penalty>
0.913857

> <i_epik_Tot_Q>
-1

> <i_epik_Tot_abs_Q>
1

> <s_epik_Chemistry_Notes>
This compound has an ester and may undergo hydrolysis at high or low pH.

> <s_lp_Force_Field>
S-OPLS

> <r_lp_Energy>
46.3688

> <b_lp_Chiralities_Consistent>
1

> <s_lp_Variant>
ligprep_h3d.sdf:990-2

> <ROCS_ShapeQuery>
_7L13

> <ROCS_TanimotoCombo>
0.757 

> <ROCS_ShapeTanimoto>
0.639 

> <ROCS_ColorTanimoto>
0.118 

> <ROCS_RefTversky>
0.792 

> <ROCS_RefColorTversky>
0.293 

> <ROCS_RefTverskyCombo>
1.085 

> <ROCS_FitTversky>
0.768 

> <ROCS_FitColorTversky>
0.166 

> <ROCS_FitTverskyCombo>
0.933 

> <ROCS_ColorScore>
-2.756

> <ROCS_Overlap>
1317.096

> <ROCS_Rank>
253                 

$$$$
ligprep_h3d.sdf:990_614
  -OEChem-08212117123D

 58 63  0     1  0  0  0  0  0999 V2000
  -21.0611   -5.2346  -29.4864 C   0  0  0  0  0  0  0  0  0  0  0  0
  -21.7989   -4.4382  -30.3663 C   0  0  0  0  0  0  0  0  0  0  0  0
  -21.1156   -4.9490  -28.1020 C   0  0  0  0  0  0  0  0  0  0  0  0
  -21.9297   -3.9114  -27.5764 C   0  0  0  0  0  0  0  0  0  0  0  0
  -22.5523   -3.4063  -29.8489 C   0  0  0  0  0  0  0  0  0  0  0  0
  -22.6438   -3.1039  -28.4910 C   0  0  0  0  0  0  0  0  0  0  0  0
  -22.0225   -4.3527  -31.7534 C   0  0  0  0  0  0  0  0  0  0  0  0
  -18.8734   -3.9698  -26.3004 C   0  0  0  0  0  0  0  0  0  0  0  0
  -19.2966   -6.1314  -24.9595 C   0  0  0  0  0  0  0  0  0  0  0  0
  -17.0141   -5.5128  -25.7176 C   0  0  0  0  0  0  0  0  0  0  0  0
  -19.7116   -7.3159  -35.6466 C   0  0  0  0  0  0  0  0  0  0  0  0
  -20.2765   -5.8064  -27.1799 C   0  0  0  0  0  0  0  0  0  0  0  0
  -23.0532   -2.8521  -25.6235 C   0  0  0  0  0  0  0  0  0  0  0  0
  -19.1561   -5.1071  -35.6323 C   0  0  0  0  0  0  0  0  0  0  0  0
  -21.2058   -4.5073  -25.2595 C   0  0  2  0  0  0  0  0  0  0  0  0
  -19.7065   -5.4631  -34.2665 C   0  0  1  0  0  0  0  0  0  0  0  0
  -23.4284   -3.3694  -24.2331 C   0  0  2  0  0  0  0  0  0  0  0  0
  -21.0625   -3.7784  -23.8925 C   0  0  1  0  0  0  0  0  0  0  0  0
  -19.8851   -5.0525  -25.8810 C   0  0  0  0  0  0  0  0  0  0  0  0
  -24.5216   -2.5101  -23.6083 C   0  0  0  0  0  0  0  0  0  0  0  0
  -20.1502   -2.5571  -23.8439 C   0  0  0  0  0  0  0  0  0  0  0  0
  -20.7386   -4.4797  -33.7512 C   0  0  0  0  0  0  0  0  0  0  0  0
  -22.8453   -3.3495  -32.0738 N   0  0  0  0  0  0  0  0  0  0  0  0
  -17.5446   -4.3647  -26.2862 N   0  0  0  0  0  0  0  0  0  0  0  0
  -17.9287   -6.3226  -25.0617 N   0  0  0  0  0  0  0  0  0  0  0  0
  -20.2358   -6.7705  -34.4952 N   0  0  0  0  0  0  0  0  0  0  0  0
  -21.9893   -3.6825  -26.1979 N   0  0  3  0  0  0  0  0  0  0  0  0
  -19.2011   -2.8524  -26.6999 O   0  0  0  0  0  0  0  0  0  0  0  0
  -19.9932   -6.8412  -24.2326 O   0  0  0  0  0  0  0  0  0  0  0  0
  -15.8107   -5.7742  -25.7581 O   0  0  0  0  0  0  0  0  0  0  0  0
  -19.8658   -8.4590  -36.0529 O   0  0  0  0  0  0  0  0  0  0  0  0
  -23.1771   -2.7499  -30.8646 O   0  0  0  0  0  0  0  0  0  0  0  0
  -18.9519   -6.3702  -36.2893 O   0  0  0  0  0  0  0  0  0  0  0  0
  -22.3200   -3.3582  -23.3406 O   0  0  0  0  0  0  0  0  0  0  0  0
  -21.5271   -5.1187  -32.7344 O   0  0  0  0  0  0  0  0  0  0  0  0
  -23.3574   -2.0346  -28.1156 F   0  0  0  0  0  0  0  0  0  0  0  0
  -20.4462   -6.0480  -29.8613 H   0  0  0  0  0  0  0  0  0  0  0  0
  -20.8519   -6.7130  -26.9473 H   0  0  0  0  0  0  0  0  0  0  0  0
  -19.3713   -6.1350  -27.7086 H   0  0  0  0  0  0  0  0  0  0  0  0
  -23.9699   -2.8977  -26.2212 H   0  0  0  0  0  0  0  0  0  0  0  0
  -22.7079   -1.8131  -25.5771 H   0  0  0  0  0  0  0  0  0  0  0  0
  -19.8457   -4.5135  -36.2420 H   0  0  0  0  0  0  0  0  0  0  0  0
  -18.1973   -4.5849  -35.5618 H   0  0  0  0  0  0  0  0  0  0  0  0
  -21.8445   -5.3817  -25.0576 H   0  0  0  0  0  0  0  0  0  0  0  0
  -18.8920   -5.5707  -33.5413 H   0  0  0  0  0  0  0  0  0  0  0  0
  -23.8065   -4.3975  -24.3005 H   0  0  0  0  0  0  0  0  0  0  0  0
  -20.6650   -4.4938  -23.1632 H   0  0  0  0  0  0  0  0  0  0  0  0
  -24.1814   -1.4782  -23.5248 H   0  0  0  0  0  0  0  0  0  0  0  0
  -24.7661   -2.8841  -22.6144 H   0  0  0  0  0  0  0  0  0  0  0  0
  -25.4173   -2.5390  -24.2283 H   0  0  0  0  0  0  0  0  0  0  0  0
  -20.4975   -1.8061  -24.5526 H   0  0  0  0  0  0  0  0  0  0  0  0
  -19.1315   -2.8444  -24.1018 H   0  0  0  0  0  0  0  0  0  0  0  0
  -20.1558   -2.1294  -22.8419 H   0  0  0  0  0  0  0  0  0  0  0  0
  -21.4008   -4.1588  -34.5610 H   0  0  0  0  0  0  0  0  0  0  0  0
  -20.2500   -3.6016  -33.3186 H   0  0  0  0  0  0  0  0  0  0  0  0
  -16.8847   -3.7423  -26.7444 H   0  0  0  0  0  0  0  0  0  0  0  0
  -17.5440   -7.1119  -24.5500 H   0  0  0  0  0  0  0  0  0  0  0  0
  -20.9071   -7.2345  -33.8912 H   0  0  0  0  0  0  0  0  0  0  0  0
  1  2  2  0  0  0  0
  1  3  1  0  0  0  0
  2  5  1  0  0  0  0
  2  7  1  0  0  0  0
  3  4  2  0  0  0  0
  3 12  1  0  0  0  0
  4  6  1  0  0  0  0
  4 27  1  0  0  0  0
  5  6  2  0  0  0  0
  5 32  1  0  0  0  0
  6 36  1  0  0  0  0
  7 23  2  0  0  0  0
  7 35  1  0  0  0  0
  8 19  1  0  0  0  0
  8 24  1  0  0  0  0
  8 28  2  0  0  0  0
  9 19  1  0  0  0  0
  9 25  1  0  0  0  0
  9 29  2  0  0  0  0
 10 24  1  0  0  0  0
 10 25  1  0  0  0  0
 10 30  2  0  0  0  0
 11 26  1  0  0  0  0
 11 31  2  0  0  0  0
 11 33  1  0  0  0  0
 12 19  1  0  0  0  0
 13 17  1  0  0  0  0
 13 27  1  0  0  0  0
 14 16  1  0  0  0  0
 14 33  1  0  0  0  0
 15 18  1  0  0  0  0
 15 19  1  0  0  0  0
 15 27  1  0  0  0  0
 16 22  1  0  0  0  0
 16 26  1  0  0  0  0
 17 20  1  0  0  0  0
 17 34  1  0  0  0  0
 18 21  1  0  0  0  0
 18 34  1  0  0  0  0
 22 35  1  0  0  0  0
 23 32  1  0  0  0  0
  1 37  1  0  0  0  0
 12 38  1  0  0  0  0
 12 39  1  0  0  0  0
 13 40  1  0  0  0  0
 13 41  1  0  0  0  0
 14 42  1  0  0  0  0
 14 43  1  0  0  0  0
 15 44  1  0  0  0  0
 16 45  1  0  0  0  0
 17 46  1  0  0  0  0
 18 47  1  0  0  0  0
 20 48  1  0  0  0  0
 20 49  1  0  0  0  0
 20 50  1  0  0  0  0
 21 51  1  0  0  0  0
 21 52  1  0  0  0  0
 21 53  1  0  0  0  0
 22 54  1  0  0  0  0
 22 55  1  0  0  0  0
 24 56  1  0  0  0  0
 25 57  1  0  0  0  0
 26 58  1  0  0  0  0
M  END
> <SMILES>
C[C@H]1CN2[C@H]([C@@H](C)O1)C1(Cc3cc4c(noc4c(c32)F)OC[C@@H]2COC(=O)N2)C(=O)NC(=O)NC1=O

> <FORMATTED_ID>
H3D-006110

> <MOLFORMULA>
C22H22FN5O8

> <Exact Mass>
503.15

> <XLogP>
-0.35

> <TPSA_NOPS>
161.6

> <s_m_source_file>
ligprep_h3d.sdf

> <i_m_source_file_index>
990

> <i_lp_mmshare_version>
55123

> <i_f3d_flags>
0

> <s_epik_input>
Tz1DMVtOSF1DKD1PKVtOSF1DKD1PKUMxMltDQEBIXTNOKFtDSDJdW0NASF0oW0NIM10pT1tDQEBIXTNbQ0gzXSljNGMoW0NIMl0yKVtjSF1jNWMoYzRGKW9uYzVPW0NIMl1bQ0BASF02W0NIMl1PQyg9TylbTkhdNg==

> <s_epik_cmdline>
J2VwaWtfcHl0aG9uJywgJy1waHQnLCAnMC41JywgJy1waCcsICc3LjUnLCAnLXRuJywgJzgnLCAnLW1hJywgJzUwMCcsICctaW1hZScsICc8aW5maWxlLm1hZT4nLCAnLW9tYWUnLCAnPG91dGZpbGUubWFlPic=

> <r_lp_tautomer_probability>
1

> <r_epik_Ionization_Penalty>
0.369129

> <r_epik_Ionization_Penalty_Charging>
0

> <r_epik_Ionization_Penalty_Neutral>
0.369129

> <r_epik_State_Penalty>
0.366447

> <r_epik_Charging_Adjusted_Penalty>
0.366447

> <i_epik_Tot_Q>
0

> <i_epik_Tot_abs_Q>
0

> <s_epik_Chemistry_Notes>
This compound has an ester and may undergo hydrolysis at high or low pH.

> <s_lp_Force_Field>
S-OPLS

> <r_lp_Energy>
39.1163

> <b_lp_Chiralities_Consistent>
1

> <s_lp_Variant>
ligprep_h3d.sdf:990-1

> <ROCS_ShapeQuery>
_7L13

> <ROCS_TanimotoCombo>
0.764 

> <ROCS_ShapeTanimoto>
0.640 

> <ROCS_ColorTanimoto>
0.124 

> <ROCS_RefTversky>
0.792 

> <ROCS_RefColorTversky>
0.295 

> <ROCS_RefTverskyCombo>
1.086 

> <ROCS_FitTversky>
0.770 

> <ROCS_FitColorTversky>
0.176 

> <ROCS_FitTverskyCombo>
0.946 

> <ROCS_ColorScore>
-2.755

> <ROCS_Overlap>
1316.562

> <ROCS_Rank>
254                 

$$$$
ligprep_h3d.sdf:5013_332
  -OEChem-08212117123D

 67 71  0     1  0  0  0  0  0999 V2000
  -20.9418   -3.8099  -33.0623 C   0  0  0  0  0  0  0  0  0  0  0  0
  -21.8478   -5.9516  -32.4071 C   0  0  0  0  0  0  0  0  0  0  0  0
  -24.8307   -3.9469  -25.0886 C   0  0  0  0  0  0  0  0  0  0  0  0
  -23.4670   -4.8822  -23.3271 C   0  0  0  0  0  0  0  0  0  0  0  0
  -19.7166   -4.4142  -33.3436 C   0  0  0  0  0  0  0  0  0  0  0  0
  -20.6226   -6.5560  -32.6885 C   0  0  0  0  0  0  0  0  0  0  0  0
  -25.9813   -4.2681  -24.3684 C   0  0  0  0  0  0  0  0  0  0  0  0
  -24.6176   -5.2033  -22.6069 C   0  0  0  0  0  0  0  0  0  0  0  0
  -18.4480   -6.2950  -25.8882 C   0  0  0  0  0  0  0  0  0  0  0  0
  -17.6609   -4.0299  -26.1824 C   0  0  0  0  0  0  0  0  0  0  0  0
  -16.3908   -5.5851  -24.8388 C   0  0  0  0  0  0  0  0  0  0  0  0
  -22.0075   -4.5786  -32.5940 C   0  0  0  0  0  0  0  0  0  0  0  0
  -18.6090   -5.0215  -26.4341 C   0  0  0  0  0  0  0  0  0  0  0  0
  -23.5736   -4.2540  -24.5680 C   0  0  0  0  0  0  0  0  0  0  0  0
  -19.5570   -5.7873  -33.1568 C   0  0  0  0  0  0  0  0  0  0  0  0
  -25.8747   -4.8962  -23.1276 C   0  0  0  0  0  0  0  0  0  0  0  0
  -17.3389   -6.5768  -25.0905 C   0  0  0  0  0  0  0  0  0  0  0  0
  -16.5518   -4.3116  -25.3847 C   0  0  0  0  0  0  0  0  0  0  0  0
  -23.1935   -2.8588  -31.2183 C   0  0  0  0  0  0  0  0  0  0  0  0
  -23.0673   -2.6536  -28.7504 C   0  0  0  0  0  0  0  0  0  0  0  0
  -20.8219   -5.5452  -27.6484 C   0  0  0  0  0  0  0  0  0  0  0  0
  -19.9903   -3.6725  -28.1419 C   0  0  0  0  0  0  0  0  0  0  0  0
  -21.8063   -4.4423  -29.8030 C   0  0  0  0  0  0  0  0  0  0  0  0
  -22.6226   -3.6280  -27.6679 C   0  0  1  0  0  0  0  0  0  0  0  0
  -21.4048   -4.2882  -28.3334 C   0  0  0  0  0  0  0  0  0  0  0  0
  -24.4393   -4.8901  -31.7705 C   0  0  0  0  0  0  0  0  0  0  0  0
  -23.9061   -3.2676  -33.5785 C   0  0  0  0  0  0  0  0  0  0  0  0
  -22.3683   -2.9610  -26.3290 C   0  0  0  0  0  0  0  0  0  0  0  0
  -23.3588   -3.9124  -32.2843 C   0  0  0  0  0  0  0  0  0  0  0  0
  -19.7230   -4.7381  -27.2362 N   0  0  0  0  0  0  0  0  0  0  0  0
  -22.7078   -3.3086  -30.0011 N   0  0  0  0  0  0  0  0  0  0  0  0
  -22.4214   -3.9325  -25.2892 N   0  0  0  0  0  0  0  0  0  0  0  0
  -23.4774   -1.6834  -31.4555 O   0  0  0  0  0  0  0  0  0  0  0  0
  -18.3617   -6.3770  -33.4326 O   0  0  0  0  0  0  0  0  0  0  0  0
  -26.9796   -5.2046  -22.4360 F   0  0  0  0  0  0  0  0  0  0  0  0
  -17.1838   -7.8003  -24.5680 F   0  0  0  0  0  0  0  0  0  0  0  0
  -15.6404   -3.3599  -25.1446 F   0  0  0  0  0  0  0  0  0  0  0  0
  -21.0573   -2.7396  -33.2107 H   0  0  0  0  0  0  0  0  0  0  0  0
  -22.6726   -6.5584  -32.0424 H   0  0  0  0  0  0  0  0  0  0  0  0
  -24.9252   -3.4572  -26.0544 H   0  0  0  0  0  0  0  0  0  0  0  0
  -22.4925   -5.1263  -22.9121 H   0  0  0  0  0  0  0  0  0  0  0  0
  -18.8902   -3.8100  -33.7085 H   0  0  0  0  0  0  0  0  0  0  0  0
  -20.5047   -7.6259  -32.5412 H   0  0  0  0  0  0  0  0  0  0  0  0
  -26.9602   -4.0289  -24.7733 H   0  0  0  0  0  0  0  0  0  0  0  0
  -24.5353   -5.6926  -21.6409 H   0  0  0  0  0  0  0  0  0  0  0  0
  -19.1801   -7.0752  -26.0787 H   0  0  0  0  0  0  0  0  0  0  0  0
  -17.7761   -3.0345  -26.6035 H   0  0  0  0  0  0  0  0  0  0  0  0
  -15.5268   -5.8056  -24.2189 H   0  0  0  0  0  0  0  0  0  0  0  0
  -24.1557   -2.5418  -28.7535 H   0  0  0  0  0  0  0  0  0  0  0  0
  -22.6148   -1.6626  -28.6796 H   0  0  0  0  0  0  0  0  0  0  0  0
  -21.3910   -5.9347  -26.7937 H   0  0  0  0  0  0  0  0  0  0  0  0
  -20.5237   -6.3768  -28.2969 H   0  0  0  0  0  0  0  0  0  0  0  0
  -19.3386   -3.6768  -29.0173 H   0  0  0  0  0  0  0  0  0  0  0  0
  -19.9660   -2.6955  -27.6512 H   0  0  0  0  0  0  0  0  0  0  0  0
  -20.9518   -4.3122  -30.4755 H   0  0  0  0  0  0  0  0  0  0  0  0
  -22.3089   -5.3860  -30.0334 H   0  0  0  0  0  0  0  0  0  0  0  0
  -23.4472   -4.3939  -27.5150 H   0  0  0  0  0  0  0  0  0  0  0  0
  -25.3860   -4.3766  -31.5618 H   0  0  0  0  0  0  0  0  0  0  0  0
  -24.1228   -5.3991  -30.8523 H   0  0  0  0  0  0  0  0  0  0  0  0
  -24.6531   -5.6714  -32.5110 H   0  0  0  0  0  0  0  0  0  0  0  0
  -24.8722   -2.7797  -33.4009 H   0  0  0  0  0  0  0  0  0  0  0  0
  -23.2176   -2.5068  -33.9663 H   0  0  0  0  0  0  0  0  0  0  0  0
  -24.0538   -4.0029  -34.3782 H   0  0  0  0  0  0  0  0  0  0  0  0
  -21.3811   -2.5050  -26.3784 H   0  0  0  0  0  0  0  0  0  0  0  0
  -23.1429   -2.2087  -26.1915 H   0  0  0  0  0  0  0  0  0  0  0  0
  -21.5689   -4.4407  -25.0396 H   0  0  0  0  0  0  0  0  0  0  0  0
  -18.4074   -7.3297  -33.2534 H   0  0  0  0  0  0  0  0  0  0  0  0
  1  5  1  0  0  0  0
  1 12  2  0  0  0  0
  2  6  2  0  0  0  0
  2 12  1  0  0  0  0
  3  7  1  0  0  0  0
  3 14  2  0  0  0  0
  4  8  2  0  0  0  0
  4 14  1  0  0  0  0
  5 15  2  0  0  0  0
  6 15  1  0  0  0  0
  7 16  2  0  0  0  0
  8 16  1  0  0  0  0
  9 13  2  0  0  0  0
  9 17  1  0  0  0  0
 10 13  1  0  0  0  0
 10 18  2  0  0  0  0
 11 17  2  0  0  0  0
 11 18  1  0  0  0  0
 12 29  1  0  0  0  0
 13 30  1  0  0  0  0
 14 32  1  0  0  0  0
 15 34  1  0  0  0  0
 16 35  1  0  0  0  0
 17 36  1  0  0  0  0
 18 37  1  0  0  0  0
 19 29  1  0  0  0  0
 19 31  1  0  0  0  0
 19 33  2  0  0  0  0
 20 24  1  0  0  0  0
 20 31  1  0  0  0  0
 21 25  1  0  0  0  0
 21 30  1  0  0  0  0
 22 25  1  0  0  0  0
 22 30  1  0  0  0  0
 23 25  1  0  0  0  0
 23 31  1  0  0  0  0
 24 25  1  0  0  0  0
 24 28  1  0  0  0  0
 26 29  1  0  0  0  0
 27 29  1  0  0  0  0
 28 32  1  0  0  0  0
  1 38  1  0  0  0  0
  2 39  1  0  0  0  0
  3 40  1  0  0  0  0
  4 41  1  0  0  0  0
  5 42  1  0  0  0  0
  6 43  1  0  0  0  0
  7 44  1  0  0  0  0
  8 45  1  0  0  0  0
  9 46  1  0  0  0  0
 10 47  1  0  0  0  0
 11 48  1  0  0  0  0
 20 49  1  0  0  0  0
 20 50  1  0  0  0  0
 21 51  1  0  0  0  0
 21 52  1  0  0  0  0
 22 53  1  0  0  0  0
 22 54  1  0  0  0  0
 23 55  1  0  0  0  0
 23 56  1  0  0  0  0
 24 57  1  0  0  0  0
 26 58  1  0  0  0  0
 26 59  1  0  0  0  0
 26 60  1  0  0  0  0
 27 61  1  0  0  0  0
 27 62  1  0  0  0  0
 27 63  1  0  0  0  0
 28 64  1  0  0  0  0
 28 65  1  0  0  0  0
 32 66  1  0  0  0  0
 34 67  1  0  0  0  0
M  END
> <SMILES>
CC(C)(C(=O)N1CC(CNc2ccc(cc2)F)C2(C1)CN(C2)c1cc(cc(c1)F)F)c1ccc(cc1)O

> <FORMATTED_ID>
H3D-009061

> <MOLFORMULA>
C29H30F3N3O2

> <Exact Mass>
509.23

> <XLogP>
5.49

> <TPSA_NOPS>
55.8

> <s_m_source_file>
ligprep_h3d.sdf

> <i_m_source_file_index>
5013

> <i_lp_mmshare_version>
55123

> <i_f3d_flags>
0

> <s_epik_input>
W2NIXTFbY0hdYyhbT0hdKVtjSF1bY0hdYzFDKFtDSDNdKShbQ0gzXSlDKD1PKU4oW0NIMl0yKVtDSDJdW0NASF0oW0NIMl1bTkhdYzNbY0hdW2NIXWMoRilbY0hdW2NIXTMpQzI0W0NIMl1OKFtDSDJdNCljNVtjSF1jKEYpW2NIXWMoRilbY0hdNQ==

> <s_epik_cmdline>
J2VwaWtfcHl0aG9uJywgJy1waHQnLCAnMC41JywgJy1waCcsICc3LjUnLCAnLXRuJywgJzgnLCAnLW1hJywgJzUwMCcsICctaW1hZScsICc8aW5maWxlLm1hZT4nLCAnLW9tYWUnLCAnPG91dGZpbGUubWFlPic=

> <r_lp_tautomer_probability>
1

> <r_epik_Ionization_Penalty>
0.00426694

> <r_epik_Ionization_Penalty_Charging>
0

> <r_epik_Ionization_Penalty_Neutral>
0.00426694

> <r_epik_State_Penalty>
-0

> <r_epik_Charging_Adjusted_Penalty>
0

> <i_epik_Tot_Q>
0

> <i_epik_Tot_abs_Q>
0

> <s_lp_Force_Field>
S-OPLS

> <r_lp_Energy>
48.8976

> <b_lp_Chiralities_Consistent>
1

> <s_lp_Variant>
ligprep_h3d.sdf:5013-1

> <ROCS_ShapeQuery>
_7L13

> <ROCS_TanimotoCombo>
0.710 

> <ROCS_ShapeTanimoto>
0.645 

> <ROCS_ColorTanimoto>
0.065 

> <ROCS_RefTversky>
0.791 

> <ROCS_RefColorTversky>
0.127 

> <ROCS_RefTverskyCombo>
0.919 

> <ROCS_FitTversky>
0.777 

> <ROCS_FitColorTversky>
0.116 

> <ROCS_FitTverskyCombo>
0.893 

> <ROCS_ColorScore>
-1.154

> <ROCS_Overlap>
1315.261

> <ROCS_Rank>
255                 

$$$$
ligprep_h3d.sdf:5336_1583
  -OEChem-08212117123D

 69 74  0     0  0  0  0  0  0999 V2000
  -19.2882   -6.0289  -36.1957 C   0  0  0  0  0  0  0  0  0  0  0  0
  -19.8192   -7.1943  -35.6430 C   0  0  0  0  0  0  0  0  0  0  0  0
  -19.3871   -4.8213  -35.5047 C   0  0  0  0  0  0  0  0  0  0  0  0
  -20.4493   -7.1520  -34.3993 C   0  0  0  0  0  0  0  0  0  0  0  0
  -20.0172   -4.7790  -34.2610 C   0  0  0  0  0  0  0  0  0  0  0  0
  -22.9648   -4.2229  -28.8224 C   0  0  0  0  0  0  0  0  0  0  0  0
  -20.2476   -4.8365  -29.2377 C   0  0  0  0  0  0  0  0  0  0  0  0
  -14.7568   -6.1881  -26.0607 C   0  0  0  0  0  0  0  0  0  0  0  0
  -14.2849   -5.0604  -25.4416 C   0  0  0  0  0  0  0  0  0  0  0  0
  -22.0904   -4.3585  -27.7507 C   0  0  0  0  0  0  0  0  0  0  0  0
  -20.5483   -5.9443  -33.7083 C   0  0  0  0  0  0  0  0  0  0  0  0
  -20.7376   -4.6617  -27.9486 C   0  0  0  0  0  0  0  0  0  0  0  0
  -22.4695   -4.3898  -30.1149 C   0  0  0  0  0  0  0  0  0  0  0  0
  -21.1193   -4.6960  -30.3212 C   0  0  0  0  0  0  0  0  0  0  0  0
  -16.4376   -4.7582  -25.8401 C   0  0  0  0  0  0  0  0  0  0  0  0
  -17.8323   -4.2551  -25.9623 C   0  0  0  0  0  0  0  0  0  0  0  0
  -18.2700   -6.3945  -27.0246 C   0  0  0  0  0  0  0  0  0  0  0  0
  -17.0003   -6.8256  -26.9010 C   0  0  0  0  0  0  0  0  0  0  0  0
  -18.7286   -5.0765  -26.5513 C   0  0  0  0  0  0  0  0  0  0  0  0
  -23.5131   -2.9155  -24.4242 C   0  0  0  0  0  0  0  0  0  0  0  0
  -23.6445   -5.4435  -24.3597 C   0  0  0  0  0  0  0  0  0  0  0  0
  -23.1293   -2.9681  -25.9040 C   0  0  0  0  0  0  0  0  0  0  0  0
  -23.2189   -5.5044  -25.8296 C   0  0  0  0  0  0  0  0  0  0  0  0
  -20.9497   -4.3033  -25.6790 C   0  0  0  0  0  0  0  0  0  0  0  0
  -24.3544   -4.1303  -24.0449 C   0  0  0  0  0  0  0  0  0  0  0  0
  -22.3958   -4.2733  -26.2734 C   0  0  0  0  0  0  0  0  0  0  0  0
  -25.4883   -5.1982  -22.0924 C   0  0  0  0  0  0  0  0  0  0  0  0
  -23.4463   -2.9571  -31.7425 C   0  0  0  0  0  0  0  0  0  0  0  0
  -21.2263   -5.8981  -32.3705 C   0  0  0  0  0  0  0  0  0  0  0  0
  -16.0986   -5.9773  -26.2992 N   0  0  0  0  0  0  0  0  0  0  0  0
  -15.3457   -4.1936  -25.3179 N   0  3  0  0  0  0  0  0  0  0  0  0
  -20.0329   -4.7553  -26.7328 N   0  0  0  0  0  0  0  0  0  0  0  0
  -24.6447   -4.0783  -22.5873 N   0  3  0  0  0  0  0  0  0  0  0  0
  -23.3158   -4.2588  -31.1754 O   0  0  0  0  0  0  0  0  0  0  0  0
  -20.6388   -4.8623  -31.5867 O   0  0  0  0  0  0  0  0  0  0  0  0
  -18.7963   -6.0623  -37.1635 H   0  0  0  0  0  0  0  0  0  0  0  0
  -19.7413   -8.1349  -36.1804 H   0  0  0  0  0  0  0  0  0  0  0  0
  -18.9727   -3.9140  -35.9342 H   0  0  0  0  0  0  0  0  0  0  0  0
  -20.8604   -8.0649  -33.9765 H   0  0  0  0  0  0  0  0  0  0  0  0
  -20.0898   -3.8335  -33.7299 H   0  0  0  0  0  0  0  0  0  0  0  0
  -24.0150   -4.0020  -28.6600 H   0  0  0  0  0  0  0  0  0  0  0  0
  -19.2036   -5.0734  -29.4178 H   0  0  0  0  0  0  0  0  0  0  0  0
  -14.3187   -7.1191  -26.3670 H   0  0  0  0  0  0  0  0  0  0  0  0
  -13.3355   -4.7374  -25.0627 H   0  0  0  0  0  0  0  0  0  0  0  0
  -18.0827   -3.2710  -25.5860 H   0  0  0  0  0  0  0  0  0  0  0  0
  -19.0042   -7.0421  -27.4957 H   0  0  0  0  0  0  0  0  0  0  0  0
  -16.6535   -7.7912  -27.2452 H   0  0  0  0  0  0  0  0  0  0  0  0
  -22.6045   -2.8707  -23.8109 H   0  0  0  0  0  0  0  0  0  0  0  0
  -24.0744   -1.9931  -24.2321 H   0  0  0  0  0  0  0  0  0  0  0  0
  -24.3078   -6.2903  -24.1447 H   0  0  0  0  0  0  0  0  0  0  0  0
  -22.7641   -5.5640  -23.7172 H   0  0  0  0  0  0  0  0  0  0  0  0
  -24.0465   -2.8700  -26.4996 H   0  0  0  0  0  0  0  0  0  0  0  0
  -22.5140   -2.0938  -26.1529 H   0  0  0  0  0  0  0  0  0  0  0  0
  -22.6555   -6.4306  -26.0030 H   0  0  0  0  0  0  0  0  0  0  0  0
  -24.1260   -5.5827  -26.4446 H   0  0  0  0  0  0  0  0  0  0  0  0
  -20.6374   -3.2994  -25.3615 H   0  0  0  0  0  0  0  0  0  0  0  0
  -20.8752   -4.9548  -24.8014 H   0  0  0  0  0  0  0  0  0  0  0  0
  -25.3268   -4.0930  -24.5493 H   0  0  0  0  0  0  0  0  0  0  0  0
  -26.4223   -5.1876  -22.6572 H   0  0  0  0  0  0  0  0  0  0  0  0
  -24.9402   -6.1277  -22.2575 H   0  0  0  0  0  0  0  0  0  0  0  0
  -25.6712   -5.0340  -21.0287 H   0  0  0  0  0  0  0  0  0  0  0  0
  -24.1494   -2.9918  -32.5783 H   0  0  0  0  0  0  0  0  0  0  0  0
  -22.4695   -2.6097  -32.0883 H   0  0  0  0  0  0  0  0  0  0  0  0
  -23.8248   -2.2731  -30.9792 H   0  0  0  0  0  0  0  0  0  0  0  0
  -22.2976   -5.6984  -32.4808 H   0  0  0  0  0  0  0  0  0  0  0  0
  -21.1143   -6.8530  -31.8458 H   0  0  0  0  0  0  0  0  0  0  0  0
  -15.3049   -3.2698  -24.8964 H   0  0  0  0  0  0  0  0  0  0  0  0
  -23.7568   -4.0697  -22.0670 H   0  0  0  0  0  0  0  0  0  0  0  0
  -25.1068   -3.1853  -22.3676 H   0  0  0  0  0  0  0  0  0  0  0  0
  1  2  2  0  0  0  0
  1  3  1  0  0  0  0
  2  4  1  0  0  0  0
  3  5  2  0  0  0  0
  4 11  2  0  0  0  0
  5 11  1  0  0  0  0
  6 10  2  0  0  0  0
  6 13  1  0  0  0  0
  7 12  2  0  0  0  0
  7 14  1  0  0  0  0
  8  9  2  0  0  0  0
  8 30  1  0  0  0  0
  9 31  1  0  0  0  0
 10 12  1  0  0  0  0
 10 26  1  0  0  0  0
 11 29  1  0  0  0  0
 12 32  1  0  0  0  0
 13 14  2  0  0  0  0
 13 34  1  0  0  0  0
 14 35  1  0  0  0  0
 15 16  1  0  0  0  0
 15 30  1  0  0  0  0
 15 31  2  0  0  0  0
 16 19  2  0  0  0  0
 17 18  2  0  0  0  0
 17 19  1  0  0  0  0
 18 30  1  0  0  0  0
 19 32  1  0  0  0  0
 20 22  1  0  0  0  0
 20 25  1  0  0  0  0
 21 23  1  0  0  0  0
 21 25  1  0  0  0  0
 22 26  1  0  0  0  0
 23 26  1  0  0  0  0
 24 26  1  0  0  0  0
 24 32  1  0  0  0  0
 25 33  1  0  0  0  0
 27 33  1  0  0  0  0
 28 34  1  0  0  0  0
 29 35  1  0  0  0  0
  1 36  1  0  0  0  0
  2 37  1  0  0  0  0
  3 38  1  0  0  0  0
  4 39  1  0  0  0  0
  5 40  1  0  0  0  0
  6 41  1  0  0  0  0
  7 42  1  0  0  0  0
  8 43  1  0  0  0  0
  9 44  1  0  0  0  0
 16 45  1  0  0  0  0
 17 46  1  0  0  0  0
 18 47  1  0  0  0  0
 20 48  1  0  0  0  0
 20 49  1  0  0  0  0
 21 50  1  0  0  0  0
 21 51  1  0  0  0  0
 22 52  1  0  0  0  0
 22 53  1  0  0  0  0
 23 54  1  0  0  0  0
 23 55  1  0  0  0  0
 24 56  1  0  0  0  0
 24 57  1  0  0  0  0
 25 58  1  0  0  0  0
 27 59  1  0  0  0  0
 27 60  1  0  0  0  0
 27 61  1  0  0  0  0
 28 62  1  0  0  0  0
 28 63  1  0  0  0  0
 28 64  1  0  0  0  0
 29 65  1  0  0  0  0
 29 66  1  0  0  0  0
 31 67  1  0  0  0  0
 33 68  1  0  0  0  0
 33 69  1  0  0  0  0
M  CHG  2  31   1  33   1
M  END
> <SMILES>
CNC1CCC2(CC1)CN(c1ccn3ccnc3c1)c1cc(c(cc12)OC)OCc1ccccc1

> <FORMATTED_ID>
H3D-014949

> <MOLFORMULA>
C29H32N4O2

> <Exact Mass>
468.25

> <XLogP>
6.74

> <TPSA_NOPS>
51

> <s_m_source_file>
ligprep_h3d.sdf

> <i_m_source_file_index>
5336

> <i_lp_mmshare_version>
55123

> <i_f3d_flags>
0

> <s_epik_input>
W0NIM11bTkhdW0NAQEhdKFtDSDJdW0NIMl0xKVtDSDJdW0NIMl1bQ0BAXTEyYzNjKE4oW0NIMl0yKWMoW2NIXVtjSF00KVtjSF1jKG40NSluW2NIXVtjSF01KVtjSF1jKGMoW2NIXTMpT1tDSDNdKU9bQ0gyXWM2W2NIXVtjSF1bY0hdW2NIXVtjSF02

> <s_epik_cmdline>
J2VwaWtfcHl0aG9uJywgJy1waHQnLCAnMC41JywgJy1waCcsICc3LjUnLCAnLXRuJywgJzgnLCAnLW1hJywgJzUwMCcsICctaW1hZScsICc8aW5maWxlLm1hZT4nLCAnLW9tYWUnLCAnPG91dGZpbGUubWFlPic=

> <r_lp_tautomer_probability>
1

> <r_epik_Ionization_Penalty>
0.336416

> <r_epik_Ionization_Penalty_Charging>
0.000600533

> <r_epik_Ionization_Penalty_Neutral>
0.335815

> <r_epik_State_Penalty>
0.331179

> <r_epik_Charging_Adjusted_Penalty>
0.331779

> <i_epik_Tot_Q>
2

> <i_epik_Tot_abs_Q>
2

> <s_lp_Force_Field>
S-OPLS

> <r_lp_Energy>
77.1042

> <b_lp_Chiralities_Consistent>
1

> <s_lp_Variant>
ligprep_h3d.sdf:5336-1

> <ROCS_ShapeQuery>
_7L13

> <ROCS_TanimotoCombo>
0.771 

> <ROCS_ShapeTanimoto>
0.665 

> <ROCS_ColorTanimoto>
0.106 

> <ROCS_RefTversky>
0.791 

> <ROCS_RefColorTversky>
0.220 

> <ROCS_RefTverskyCombo>
1.011 

> <ROCS_FitTversky>
0.807 

> <ROCS_FitColorTversky>
0.169 

> <ROCS_FitTverskyCombo>
0.976 

> <ROCS_ColorScore>
-2.015

> <ROCS_Overlap>
1312.418

> <ROCS_Rank>
256                 

$$$$
ligprep_h3d.sdf:5551_1635
  -OEChem-08212117123D

 59 63  0     0  0  0  0  0  0999 V2000
  -24.4417   -3.5308  -24.4908 C   0  0  0  0  0  0  0  0  0  0  0  0
  -24.8681   -5.8875  -24.1731 C   0  0  0  0  0  0  0  0  0  0  0  0
  -24.8410   -3.2815  -23.1779 C   0  0  0  0  0  0  0  0  0  0  0  0
  -25.2674   -5.6382  -22.8600 C   0  0  0  0  0  0  0  0  0  0  0  0
  -17.7001   -3.6619  -27.4689 C   0  0  0  0  0  0  0  0  0  0  0  0
  -18.8194   -3.6732  -28.3076 C   0  0  0  0  0  0  0  0  0  0  0  0
  -20.8426   -6.9772  -33.0311 C   0  0  0  0  0  0  0  0  0  0  0  0
  -20.6627   -7.9145  -34.0511 C   0  0  0  0  0  0  0  0  0  0  0  0
  -19.0699   -4.3566  -25.6154 C   0  0  0  0  0  0  0  0  0  0  0  0
  -19.4369   -5.3701  -34.2013 C   0  0  0  0  0  0  0  0  0  0  0  0
  -20.1915   -4.3678  -26.4558 C   0  0  0  0  0  0  0  0  0  0  0  0
  -24.4553   -4.8338  -24.9885 C   0  0  0  0  0  0  0  0  0  0  0  0
  -25.2538   -4.3351  -22.3624 C   0  0  0  0  0  0  0  0  0  0  0  0
  -17.8252   -4.0028  -26.1265 C   0  0  0  0  0  0  0  0  0  0  0  0
  -20.0924   -4.0258  -27.8248 C   0  0  0  0  0  0  0  0  0  0  0  0
  -20.2334   -5.7123  -33.1058 C   0  0  0  0  0  0  0  0  0  0  0  0
  -19.8716   -7.5518  -35.1218 C   0  0  0  0  0  0  0  0  0  0  0  0
  -19.2753   -6.3136  -35.1950 C   0  0  0  0  0  0  0  0  0  0  0  0
  -22.4637   -4.4092  -28.0769 C   0  0  0  0  0  0  0  0  0  0  0  0
  -21.5091   -4.7503  -25.8815 C   0  0  0  0  0  0  0  0  0  0  0  0
  -22.6702   -4.7491  -26.8018 C   0  0  0  0  0  0  0  0  0  0  0  0
  -24.0293   -5.1009  -26.3880 C   0  0  0  0  0  0  0  0  0  0  0  0
  -21.1850   -4.9451  -30.9034 C   0  0  0  0  0  0  0  0  0  0  0  0
  -18.7409   -7.4403  -36.9633 C   0  0  0  0  0  0  0  0  0  0  0  0
  -25.6797   -4.0681  -20.9581 C   0  0  0  0  0  0  0  0  0  0  0  0
  -15.9084   -5.3355  -25.2120 C   0  0  0  0  0  0  0  0  0  0  0  0
  -16.6277   -3.9892  -25.2381 C   0  0  0  0  0  0  0  0  0  0  0  0
  -21.1290   -3.6942  -30.0480 C   0  0  0  0  0  0  0  0  0  0  0  0
  -21.2510   -4.0507  -28.6367 N   0  0  0  0  0  0  0  0  0  0  0  0
  -20.4299   -4.7778  -32.0612 N   0  0  0  0  0  0  0  0  0  0  0  0
  -21.6307   -5.0518  -24.7008 O   0  0  0  0  0  0  0  0  0  0  0  0
  -24.8094   -5.6306  -27.1798 O   0  0  0  0  0  0  0  0  0  0  0  0
  -21.8164   -5.9410  -30.5647 O   0  0  0  0  0  0  0  0  0  0  0  0
  -19.5852   -8.3281  -36.2021 O   0  0  0  0  0  0  0  0  0  0  0  0
  -18.5406   -6.1599  -36.3301 O   0  0  0  0  0  0  0  0  0  0  0  0
  -24.1217   -2.7028  -25.1180 H   0  0  0  0  0  0  0  0  0  0  0  0
  -24.8829   -6.9068  -24.5501 H   0  0  0  0  0  0  0  0  0  0  0  0
  -24.8269   -2.2632  -22.7983 H   0  0  0  0  0  0  0  0  0  0  0  0
  -25.5872   -6.4653  -22.2315 H   0  0  0  0  0  0  0  0  0  0  0  0
  -16.7323   -3.3828  -27.8779 H   0  0  0  0  0  0  0  0  0  0  0  0
  -18.6649   -3.3968  -29.3473 H   0  0  0  0  0  0  0  0  0  0  0  0
  -21.4620   -7.2375  -32.1758 H   0  0  0  0  0  0  0  0  0  0  0  0
  -21.1309   -8.8907  -33.9979 H   0  0  0  0  0  0  0  0  0  0  0  0
  -19.1577   -4.6215  -24.5646 H   0  0  0  0  0  0  0  0  0  0  0  0
  -18.9603   -4.3981  -34.2728 H   0  0  0  0  0  0  0  0  0  0  0  0
  -23.2807   -4.3925  -28.7917 H   0  0  0  0  0  0  0  0  0  0  0  0
  -17.7644   -7.9189  -37.1032 H   0  0  0  0  0  0  0  0  0  0  0  0
  -19.1973   -7.2785  -37.9465 H   0  0  0  0  0  0  0  0  0  0  0  0
  -26.7572   -3.8671  -20.9176 H   0  0  0  0  0  0  0  0  0  0  0  0
  -25.4604   -4.9234  -20.3059 H   0  0  0  0  0  0  0  0  0  0  0  0
  -25.1483   -3.2041  -20.5383 H   0  0  0  0  0  0  0  0  0  0  0  0
  -16.5852   -6.1363  -24.8954 H   0  0  0  0  0  0  0  0  0  0  0  0
  -15.0639   -5.3104  -24.5162 H   0  0  0  0  0  0  0  0  0  0  0  0
  -15.5230   -5.5940  -26.2041 H   0  0  0  0  0  0  0  0  0  0  0  0
  -15.9191   -3.2091  -25.5600 H   0  0  0  0  0  0  0  0  0  0  0  0
  -16.9149   -3.7149  -24.2101 H   0  0  0  0  0  0  0  0  0  0  0  0
  -21.9442   -3.0190  -30.3265 H   0  0  0  0  0  0  0  0  0  0  0  0
  -20.1750   -3.1866  -30.2219 H   0  0  0  0  0  0  0  0  0  0  0  0
  -19.9585   -3.8841  -32.1836 H   0  0  0  0  0  0  0  0  0  0  0  0
  1  3  1  0  0  0  0
  1 12  2  0  0  0  0
  2  4  2  0  0  0  0
  2 12  1  0  0  0  0
  3 13  2  0  0  0  0
  4 13  1  0  0  0  0
  5  6  1  0  0  0  0
  5 14  2  0  0  0  0
  6 15  2  0  0  0  0
  7  8  1  0  0  0  0
  7 16  2  0  0  0  0
  8 17  2  0  0  0  0
  9 11  2  0  0  0  0
  9 14  1  0  0  0  0
 10 16  1  0  0  0  0
 10 18  2  0  0  0  0
 11 15  1  0  0  0  0
 11 20  1  0  0  0  0
 12 22  1  0  0  0  0
 13 25  1  0  0  0  0
 14 27  1  0  0  0  0
 15 29  1  0  0  0  0
 16 30  1  0  0  0  0
 17 18  1  0  0  0  0
 17 34  1  0  0  0  0
 18 35  1  0  0  0  0
 19 21  2  0  0  0  0
 19 29  1  0  0  0  0
 20 21  1  0  0  0  0
 20 31  2  0  0  0  0
 21 22  1  0  0  0  0
 22 32  2  0  0  0  0
 23 28  1  0  0  0  0
 23 30  1  0  0  0  0
 23 33  2  0  0  0  0
 24 34  1  0  0  0  0
 24 35  1  0  0  0  0
 26 27  1  0  0  0  0
 28 29  1  0  0  0  0
  1 36  1  0  0  0  0
  2 37  1  0  0  0  0
  3 38  1  0  0  0  0
  4 39  1  0  0  0  0
  5 40  1  0  0  0  0
  6 41  1  0  0  0  0
  7 42  1  0  0  0  0
  8 43  1  0  0  0  0
  9 44  1  0  0  0  0
 10 45  1  0  0  0  0
 19 46  1  0  0  0  0
 24 47  1  0  0  0  0
 24 48  1  0  0  0  0
 25 49  1  0  0  0  0
 25 50  1  0  0  0  0
 25 51  1  0  0  0  0
 26 52  1  0  0  0  0
 26 53  1  0  0  0  0
 26 54  1  0  0  0  0
 27 55  1  0  0  0  0
 27 56  1  0  0  0  0
 28 57  1  0  0  0  0
 28 58  1  0  0  0  0
 30 59  1  0  0  0  0
M  END
> <SMILES>
CCc1ccc2c(c1)C(=O)C(=CN2CC(=O)Nc1ccc2c(c1)OCO2)C(=O)c1ccc(cc1)C

> <FORMATTED_ID>
H3D-014141

> <MOLFORMULA>
C28H24N2O5

> <Exact Mass>
468.17

> <XLogP>
4.44

> <TPSA_NOPS>
84.9

> <s_m_source_file>
ligprep_h3d.sdf

> <i_m_source_file_index>
5551

> <i_lp_mmshare_version>
55123

> <i_f3d_flags>
0

> <s_epik_input>
W2NIXTFbY0hdYyhbQ0gzXSlbY0hdW2NIXWMxQyg9TyljKGMoPU8pYyhjMjMpW2NIXWMoW0NIMl1bQ0gzXSlbY0hdW2NIXTIpW2NIXW4zW0NIMl1DKD1PKVtOSF1jKFtjSF1bY0hdNClbY0hdYyhjNDUpT1tDSDJdTzU=

> <s_epik_cmdline>
J2VwaWtfcHl0aG9uJywgJy1waHQnLCAnMC41JywgJy1waCcsICc3LjUnLCAnLXRuJywgJzgnLCAnLW1hJywgJzUwMCcsICctaW1hZScsICc8aW5maWxlLm1hZT4nLCAnLW9tYWUnLCAnPG91dGZpbGUubWFlPic=

> <r_lp_tautomer_probability>
1

> <r_epik_Ionization_Penalty>
3.72023e-06

> <r_epik_Ionization_Penalty_Charging>
2.49829e-07

> <r_epik_Ionization_Penalty_Neutral>
3.4704e-06

> <r_epik_State_Penalty>
-0

> <r_epik_Charging_Adjusted_Penalty>
2.49829e-07

> <i_epik_Tot_Q>
0

> <i_epik_Tot_abs_Q>
0

> <s_epik_Chemistry_Notes>
This compound contains an acetal/aminal-like group ( X-CH(R)-Y where X, Y are N, S, or O) that may be acid/base labile, releasing an aldehyde.

> <s_lp_Force_Field>
S-OPLS

> <r_lp_Energy>
56.7101

> <b_lp_Chiralities_Consistent>
1

> <s_lp_Variant>
ligprep_h3d.sdf:5551-1

> <ROCS_ShapeQuery>
_7L13

> <ROCS_TanimotoCombo>
0.809 

> <ROCS_ShapeTanimoto>
0.664 

> <ROCS_ColorTanimoto>
0.144 

> <ROCS_RefTversky>
0.791 

> <ROCS_RefColorTversky>
0.290 

> <ROCS_RefTverskyCombo>
1.081 

> <ROCS_FitTversky>
0.806 

> <ROCS_FitColorTversky>
0.223 

> <ROCS_FitTverskyCombo>
1.029 

> <ROCS_ColorScore>
-2.655

> <ROCS_Overlap>
1311.966

> <ROCS_Rank>
257                 

$$$$
ligprep_h3d.sdf:3105_844
  -OEChem-08212117123D

 64 68  0     0  0  0  0  0  0999 V2000
  -15.8651   -4.4040  -27.7506 C   0  0  0  0  0  0  0  0  0  0  0  0
  -16.6090   -3.8914  -28.8086 C   0  0  0  0  0  0  0  0  0  0  0  0
  -24.6557   -4.9263  -25.6527 C   0  0  0  0  0  0  0  0  0  0  0  0
  -23.4903   -4.8030  -23.5399 C   0  0  0  0  0  0  0  0  0  0  0  0
  -25.8564   -5.1458  -24.9776 C   0  0  0  0  0  0  0  0  0  0  0  0
  -24.6910   -5.0224  -22.8648 C   0  0  0  0  0  0  0  0  0  0  0  0
  -16.4934   -4.7926  -26.5662 C   0  0  0  0  0  0  0  0  0  0  0  0
  -17.9977   -3.7385  -28.7125 C   0  0  0  0  0  0  0  0  0  0  0  0
  -23.0905   -3.8236  -32.3906 C   0  0  0  0  0  0  0  0  0  0  0  0
  -22.6810   -2.3261  -30.5394 C   0  0  0  0  0  0  0  0  0  0  0  0
  -23.4726   -4.7550  -24.9338 C   0  0  0  0  0  0  0  0  0  0  0  0
  -25.8741   -5.1938  -23.5837 C   0  0  0  0  0  0  0  0  0  0  0  0
  -22.1759   -4.7322  -31.8580 C   0  0  0  0  0  0  0  0  0  0  0  0
  -17.8885   -4.6495  -26.4570 C   0  0  0  0  0  0  0  0  0  0  0  0
  -18.6239   -4.1092  -27.5117 C   0  0  0  0  0  0  0  0  0  0  0  0
  -21.7664   -3.2347  -30.0067 C   0  0  0  0  0  0  0  0  0  0  0  0
  -21.5139   -4.4377  -30.6660 C   0  0  0  0  0  0  0  0  0  0  0  0
  -23.3430   -2.6205  -31.7313 C   0  0  0  0  0  0  0  0  0  0  0  0
  -19.9283   -4.6965  -25.7926 C   0  0  0  0  0  0  0  0  0  0  0  0
  -22.2845   -3.8159  -26.9639 C   0  0  0  0  0  0  0  0  0  0  0  0
  -22.1921   -4.5206  -25.6524 C   0  0  0  0  0  0  0  0  0  0  0  0
  -21.1329   -3.6111  -27.6296 C   0  0  0  0  0  0  0  0  0  0  0  0
  -21.0843   -8.1782  -34.4143 C   0  0  0  0  0  0  0  0  0  0  0  0
  -19.2721   -5.2629  -35.2087 C   0  0  0  0  0  0  0  0  0  0  0  0
  -21.9185   -6.0144  -32.5786 C   0  0  0  0  0  0  0  0  0  0  0  0
  -20.1083   -7.4372  -33.5268 C   0  0  0  0  0  0  0  0  0  0  0  0
  -20.6464   -5.2441  -34.5761 C   0  0  0  0  0  0  0  0  0  0  0  0
  -27.1585   -5.4273  -22.8622 C   0  0  0  0  0  0  0  0  0  0  0  0
  -18.7019   -4.9950  -25.4165 N   0  0  0  0  0  0  0  0  0  0  0  0
  -21.0826   -4.9125  -25.1013 N   0  0  0  0  0  0  0  0  0  0  0  0
  -19.9393   -4.0899  -27.0544 N   0  0  0  0  0  0  0  0  0  0  0  0
  -21.1087   -2.9249  -28.8130 N   0  0  0  0  0  0  0  0  0  0  0  0
  -20.6138   -6.0363  -33.2943 N   0  3  0  0  0  0  0  0  0  0  0  0
  -20.6182   -5.3276  -30.1483 O   0  0  0  0  0  0  0  0  0  0  0  0
  -28.2331   -5.5763  -23.6921 F   0  0  0  0  0  0  0  0  0  0  0  0
  -27.1517   -6.5493  -22.0834 F   0  0  0  0  0  0  0  0  0  0  0  0
  -27.4834   -4.4010  -22.0232 F   0  0  0  0  0  0  0  0  0  0  0  0
  -24.4703   -1.4985  -32.3895 Cl  0  0  0  0  0  0  0  0  0  0  0  0
  -14.7886   -4.5139  -27.8498 H   0  0  0  0  0  0  0  0  0  0  0  0
  -16.1054   -3.6072  -29.7291 H   0  0  0  0  0  0  0  0  0  0  0  0
  -24.6527   -4.8906  -26.7390 H   0  0  0  0  0  0  0  0  0  0  0  0
  -22.5746   -4.6709  -22.9694 H   0  0  0  0  0  0  0  0  0  0  0  0
  -26.7734   -5.2779  -25.5456 H   0  0  0  0  0  0  0  0  0  0  0  0
  -24.6957   -5.0578  -21.7785 H   0  0  0  0  0  0  0  0  0  0  0  0
  -15.9121   -5.2079  -25.7489 H   0  0  0  0  0  0  0  0  0  0  0  0
  -18.5430   -3.3568  -29.5659 H   0  0  0  0  0  0  0  0  0  0  0  0
  -23.6042   -4.0569  -33.3206 H   0  0  0  0  0  0  0  0  0  0  0  0
  -22.8759   -1.3883  -30.0234 H   0  0  0  0  0  0  0  0  0  0  0  0
  -23.2479   -3.4779  -27.3274 H   0  0  0  0  0  0  0  0  0  0  0  0
  -22.0601   -8.2512  -33.9246 H   0  0  0  0  0  0  0  0  0  0  0  0
  -21.2226   -7.6604  -35.3692 H   0  0  0  0  0  0  0  0  0  0  0  0
  -20.7346   -9.1942  -34.6255 H   0  0  0  0  0  0  0  0  0  0  0  0
  -18.5428   -4.7921  -34.5424 H   0  0  0  0  0  0  0  0  0  0  0  0
  -18.9401   -6.2880  -35.4035 H   0  0  0  0  0  0  0  0  0  0  0  0
  -19.2655   -4.7167  -36.1577 H   0  0  0  0  0  0  0  0  0  0  0  0
  -21.9076   -6.8689  -31.8894 H   0  0  0  0  0  0  0  0  0  0  0  0
  -22.6894   -6.2131  -33.3347 H   0  0  0  0  0  0  0  0  0  0  0  0
  -19.1231   -7.3500  -33.9933 H   0  0  0  0  0  0  0  0  0  0  0  0
  -20.0133   -7.9114  -32.5460 H   0  0  0  0  0  0  0  0  0  0  0  0
  -21.3957   -5.7094  -35.2225 H   0  0  0  0  0  0  0  0  0  0  0  0
  -20.9589   -4.2284  -34.3181 H   0  0  0  0  0  0  0  0  0  0  0  0
  -20.5394   -2.0929  -28.8035 H   0  0  0  0  0  0  0  0  0  0  0  0
  -19.9172   -5.5748  -32.6869 H   0  0  0  0  0  0  0  0  0  0  0  0
  -20.5548   -6.1072  -30.7207 H   0  0  0  0  0  0  0  0  0  0  0  0
  1  2  2  0  0  0  0
  1  7  1  0  0  0  0
  2  8  1  0  0  0  0
  3  5  1  0  0  0  0
  3 11  2  0  0  0  0
  4  6  2  0  0  0  0
  4 11  1  0  0  0  0
  5 12  2  0  0  0  0
  6 12  1  0  0  0  0
  7 14  2  0  0  0  0
  8 15  2  0  0  0  0
  9 13  2  0  0  0  0
  9 18  1  0  0  0  0
 10 16  1  0  0  0  0
 10 18  2  0  0  0  0
 11 21  1  0  0  0  0
 12 28  1  0  0  0  0
 13 17  1  0  0  0  0
 13 25  1  0  0  0  0
 14 15  1  0  0  0  0
 14 29  1  0  0  0  0
 15 31  1  0  0  0  0
 16 17  2  0  0  0  0
 16 32  1  0  0  0  0
 17 34  1  0  0  0  0
 18 38  1  0  0  0  0
 19 29  2  0  0  0  0
 19 30  1  0  0  0  0
 19 31  1  0  0  0  0
 20 21  1  0  0  0  0
 20 22  2  0  0  0  0
 21 30  2  0  0  0  0
 22 31  1  0  0  0  0
 22 32  1  0  0  0  0
 23 26  1  0  0  0  0
 24 27  1  0  0  0  0
 25 33  1  0  0  0  0
 26 33  1  0  0  0  0
 27 33  1  0  0  0  0
 28 35  1  0  0  0  0
 28 36  1  0  0  0  0
 28 37  1  0  0  0  0
  1 39  1  0  0  0  0
  2 40  1  0  0  0  0
  3 41  1  0  0  0  0
  4 42  1  0  0  0  0
  5 43  1  0  0  0  0
  6 44  1  0  0  0  0
  7 45  1  0  0  0  0
  8 46  1  0  0  0  0
  9 47  1  0  0  0  0
 10 48  1  0  0  0  0
 20 49  1  0  0  0  0
 23 50  1  0  0  0  0
 23 51  1  0  0  0  0
 23 52  1  0  0  0  0
 24 53  1  0  0  0  0
 24 54  1  0  0  0  0
 24 55  1  0  0  0  0
 25 56  1  0  0  0  0
 25 57  1  0  0  0  0
 26 58  1  0  0  0  0
 26 59  1  0  0  0  0
 27 60  1  0  0  0  0
 27 61  1  0  0  0  0
 32 62  1  0  0  0  0
 33 63  1  0  0  0  0
 34 64  1  0  0  0  0
M  CHG  1  33   1
M  END
> <SMILES>
CCN(CC)Cc1cc(cc(c1O)Nc1cc(nc2nc3ccccc3n12)-c1ccc(cc1)C(F)(F)F)Cl

> <FORMATTED_ID>
H3D-016096

> <MOLFORMULA>
C28H25ClF3N5O

> <Exact Mass>
539.17

> <XLogP>
7.94

> <TPSA_NOPS>
65.7

> <s_m_source_file>
ligprep_h3d.sdf

> <i_m_source_file_index>
3105

> <i_lp_mmshare_version>
55123

> <i_f3d_flags>
0

> <s_epik_input>
W0NIM11bQ0gyXU4oW0NIMl1bQ0gzXSlbQ0gyXWMxW2NIXWMoQ2wpW2NIXWMoYzFbT0hdKVtOSF1jKG4oYzIzKWM0YyhuMylbY0hdW2NIXVtjSF1bY0hdNClbY0hdYyhuMiktYzVbY0hdW2NIXWMoQyhGKShGKUYpW2NIXVtjSF01

> <s_epik_cmdline>
J2VwaWtfcHl0aG9uJywgJy1waHQnLCAnMC41JywgJy1waCcsICc3LjUnLCAnLXRuJywgJzgnLCAnLW1hJywgJzUwMCcsICctaW1hZScsICc8aW5maWxlLm1hZT4nLCAnLW9tYWUnLCAnPG91dGZpbGUubWFlPic=

> <r_lp_tautomer_probability>
1

> <r_epik_Ionization_Penalty>
0.12574

> <r_epik_Ionization_Penalty_Charging>
0.0579928

> <r_epik_Ionization_Penalty_Neutral>
0.0677476

> <r_epik_State_Penalty>
-0

> <r_epik_Charging_Adjusted_Penalty>
0.0579928

> <i_epik_Tot_Q>
1

> <i_epik_Tot_abs_Q>
1

> <s_lp_Force_Field>
S-OPLS

> <r_lp_Energy>
75.5922

> <b_lp_Chiralities_Consistent>
1

> <s_lp_Variant>
ligprep_h3d.sdf:3105-1

> <ROCS_ShapeQuery>
_7L13

> <ROCS_TanimotoCombo>
0.756 

> <ROCS_ShapeTanimoto>
0.626 

> <ROCS_ColorTanimoto>
0.130 

> <ROCS_RefTversky>
0.791 

> <ROCS_RefColorTversky>
0.265 

> <ROCS_RefTverskyCombo>
1.056 

> <ROCS_FitTversky>
0.751 

> <ROCS_FitColorTversky>
0.204 

> <ROCS_FitTverskyCombo>
0.954 

> <ROCS_ColorScore>
-2.427

> <ROCS_Overlap>
1317.150

> <ROCS_Rank>
258                 

$$$$
ligprep_h3d.sdf:5444_1753
  -OEChem-08212117123D

 55 60  0     0  0  0  0  0  0999 V2000
  -21.5847   -4.8778  -24.5043 C   0  0  0  0  0  0  0  0  0  0  0  0
  -22.8719   -4.8495  -23.9590 C   0  0  0  0  0  0  0  0  0  0  0  0
  -18.5959   -6.2989  -25.9065 C   0  0  0  0  0  0  0  0  0  0  0  0
  -17.8905   -4.0523  -26.3961 C   0  0  0  0  0  0  0  0  0  0  0  0
  -18.2960   -6.2970  -35.0728 C   0  0  0  0  0  0  0  0  0  0  0  0
  -21.3510   -5.8318  -33.2321 C   0  0  0  0  0  0  0  0  0  0  0  0
  -23.8243   -4.3889  -26.1373 C   0  0  0  0  0  0  0  0  0  0  0  0
  -17.2743   -6.5921  -25.6116 C   0  0  0  0  0  0  0  0  0  0  0  0
  -16.6004   -4.4461  -26.0791 C   0  0  0  0  0  0  0  0  0  0  0  0
  -18.5440   -7.4709  -35.7579 C   0  0  0  0  0  0  0  0  0  0  0  0
  -20.7310   -7.7456  -34.8591 C   0  0  0  0  0  0  0  0  0  0  0  0
  -20.5358   -6.5652  -34.1432 C   0  0  0  0  0  0  0  0  0  0  0  0
  -22.5401   -4.4040  -26.6690 C   0  0  0  0  0  0  0  0  0  0  0  0
  -19.3348   -5.8649  -34.2583 C   0  0  0  0  0  0  0  0  0  0  0  0
  -21.4197   -4.6700  -25.8683 C   0  0  0  0  0  0  0  0  0  0  0  0
  -18.9016   -5.0025  -26.3055 C   0  0  0  0  0  0  0  0  0  0  0  0
  -23.9858   -4.6123  -24.7715 C   0  0  0  0  0  0  0  0  0  0  0  0
  -20.6418   -4.7263  -32.8235 C   0  0  0  0  0  0  0  0  0  0  0  0
  -21.0554   -3.6696  -31.8895 C   0  0  0  0  0  0  0  0  0  0  0  0
  -22.7377   -2.9565  -28.7688 C   0  0  0  0  0  0  0  0  0  0  0  0
  -22.4584   -5.4803  -28.9280 C   0  0  0  0  0  0  0  0  0  0  0  0
  -22.9401   -3.1047  -30.2793 C   0  0  0  0  0  0  0  0  0  0  0  0
  -21.9850   -5.3806  -30.3819 C   0  0  0  0  0  0  0  0  0  0  0  0
  -20.5739   -4.0538  -27.9150 C   0  0  0  0  0  0  0  0  0  0  0  0
  -22.1200   -4.2150  -28.1068 C   0  0  0  0  0  0  0  0  0  0  0  0
  -16.2650   -5.6959  -25.6879 N   0  0  0  0  0  0  0  0  0  0  0  0
  -19.4253   -4.7553  -33.4491 N   0  0  0  0  0  0  0  0  0  0  0  0
  -19.7045   -8.1195  -35.6273 N   0  3  0  0  0  0  0  0  0  0  0  0
  -20.2203   -4.6555  -26.6151 N   0  0  0  0  0  0  0  0  0  0  0  0
  -21.9475   -4.0029  -30.8675 N   0  0  0  0  0  0  0  0  0  0  0  0
  -20.5943   -2.5469  -32.0912 O   0  0  0  0  0  0  0  0  0  0  0  0
  -25.5622   -4.5938  -24.0800 Cl  0  0  0  0  0  0  0  0  0  0  0  0
  -20.7318   -5.0670  -23.8594 H   0  0  0  0  0  0  0  0  0  0  0  0
  -22.9935   -5.0173  -22.8914 H   0  0  0  0  0  0  0  0  0  0  0  0
  -19.3613   -7.0635  -25.8255 H   0  0  0  0  0  0  0  0  0  0  0  0
  -18.0944   -3.0322  -26.7041 H   0  0  0  0  0  0  0  0  0  0  0  0
  -17.3623   -5.7574  -35.1657 H   0  0  0  0  0  0  0  0  0  0  0  0
  -22.3518   -6.0916  -32.9130 H   0  0  0  0  0  0  0  0  0  0  0  0
  -24.6833   -4.2116  -26.7778 H   0  0  0  0  0  0  0  0  0  0  0  0
  -16.9839   -7.5887  -25.2955 H   0  0  0  0  0  0  0  0  0  0  0  0
  -15.7759   -3.7428  -26.1332 H   0  0  0  0  0  0  0  0  0  0  0  0
  -17.8274   -7.9268  -36.4284 H   0  0  0  0  0  0  0  0  0  0  0  0
  -21.6104   -8.3740  -34.8545 H   0  0  0  0  0  0  0  0  0  0  0  0
  -22.1127   -2.0705  -28.5679 H   0  0  0  0  0  0  0  0  0  0  0  0
  -23.7161   -2.7309  -28.3122 H   0  0  0  0  0  0  0  0  0  0  0  0
  -23.5439   -5.6391  -28.9323 H   0  0  0  0  0  0  0  0  0  0  0  0
  -22.0194   -6.3728  -28.4679 H   0  0  0  0  0  0  0  0  0  0  0  0
  -23.9657   -3.4483  -30.4700 H   0  0  0  0  0  0  0  0  0  0  0  0
  -22.8422   -2.1297  -30.7817 H   0  0  0  0  0  0  0  0  0  0  0  0
  -20.9692   -5.7922  -30.4926 H   0  0  0  0  0  0  0  0  0  0  0  0
  -22.6359   -6.0003  -31.0183 H   0  0  0  0  0  0  0  0  0  0  0  0
  -20.0026   -4.5204  -28.7250 H   0  0  0  0  0  0  0  0  0  0  0  0
  -20.2984   -2.9901  -27.8922 H   0  0  0  0  0  0  0  0  0  0  0  0
  -18.6963   -4.0642  -33.3358 H   0  0  0  0  0  0  0  0  0  0  0  0
  -19.8176   -8.9803  -36.1638 H   0  0  0  0  0  0  0  0  0  0  0  0
  1  2  1  0  0  0  0
  1 15  2  0  0  0  0
  2 17  2  0  0  0  0
  3  8  1  0  0  0  0
  3 16  2  0  0  0  0
  4  9  2  0  0  0  0
  4 16  1  0  0  0  0
  5 10  1  0  0  0  0
  5 14  2  0  0  0  0
  6 12  1  0  0  0  0
  6 18  2  0  0  0  0
  7 13  2  0  0  0  0
  7 17  1  0  0  0  0
  8 26  2  0  0  0  0
  9 26  1  0  0  0  0
 10 28  2  0  0  0  0
 11 12  2  0  0  0  0
 11 28  1  0  0  0  0
 12 14  1  0  0  0  0
 13 15  1  0  0  0  0
 13 25  1  0  0  0  0
 14 27  1  0  0  0  0
 15 29  1  0  0  0  0
 16 29  1  0  0  0  0
 17 32  1  0  0  0  0
 18 19  1  0  0  0  0
 18 27  1  0  0  0  0
 19 30  1  0  0  0  0
 19 31  2  0  0  0  0
 20 22  1  0  0  0  0
 20 25  1  0  0  0  0
 21 23  1  0  0  0  0
 21 25  1  0  0  0  0
 22 30  1  0  0  0  0
 23 30  1  0  0  0  0
 24 25  1  0  0  0  0
 24 29  1  0  0  0  0
  1 33  1  0  0  0  0
  2 34  1  0  0  0  0
  3 35  1  0  0  0  0
  4 36  1  0  0  0  0
  5 37  1  0  0  0  0
  6 38  1  0  0  0  0
  7 39  1  0  0  0  0
  8 40  1  0  0  0  0
  9 41  1  0  0  0  0
 10 42  1  0  0  0  0
 11 43  1  0  0  0  0
 20 44  1  0  0  0  0
 20 45  1  0  0  0  0
 21 46  1  0  0  0  0
 21 47  1  0  0  0  0
 22 48  1  0  0  0  0
 22 49  1  0  0  0  0
 23 50  1  0  0  0  0
 23 51  1  0  0  0  0
 24 52  1  0  0  0  0
 24 53  1  0  0  0  0
 27 54  1  0  0  0  0
 28 55  1  0  0  0  0
M  CHG  1  28   1
M  END
> <SMILES>
Clc1ccc2c(c1)C1(CCN(CC1)C(=O)c1cc3cnccc3[nH]1)CN2c1ccncc1

> <FORMATTED_ID>
H3D-016155

> <MOLFORMULA>
C25H22ClN5O

> <Exact Mass>
443.15

> <XLogP>
4.69

> <TPSA_NOPS>
65.1

> <s_m_source_file>
ligprep_h3d.sdf

> <i_m_source_file_index>
5444

> <i_lp_mmshare_version>
55123

> <i_f3d_flags>
0

> <s_epik_input>
W2NIXTFbY0hdbltjSF1bY0hdYzFOKFtDSDJdMiljKFtjSF1bY0hdYyhDbClbY0hdMyljM0MyNFtDSDJdW0NIMl1OKFtDSDJdW0NIMl00KUMoPU8pYyhbY0hdNSlbbkhdYyhjNTYpW2NIXVtjSF1uW2NIXTY=

> <s_epik_cmdline>
J2VwaWtfcHl0aG9uJywgJy1waHQnLCAnMC41JywgJy1waCcsICc3LjUnLCAnLXRuJywgJzgnLCAnLW1hJywgJzUwMCcsICctaW1hZScsICc8aW5maWxlLm1hZT4nLCAnLW9tYWUnLCAnPG91dGZpbGUubWFlPic=

> <r_lp_tautomer_probability>
1

> <r_epik_Ionization_Penalty>
0.317985

> <r_epik_Ionization_Penalty_Charging>
0.206766

> <r_epik_Ionization_Penalty_Neutral>
0.11122

> <r_epik_State_Penalty>
-0

> <r_epik_Charging_Adjusted_Penalty>
0.206766

> <i_epik_Tot_Q>
1

> <i_epik_Tot_abs_Q>
1

> <s_lp_Force_Field>
S-OPLS

> <r_lp_Energy>
67.0326

> <b_lp_Chiralities_Consistent>
1

> <s_lp_Variant>
ligprep_h3d.sdf:5444-1

> <ROCS_ShapeQuery>
_7L13

> <ROCS_TanimotoCombo>
0.760 

> <ROCS_ShapeTanimoto>
0.703 

> <ROCS_ColorTanimoto>
0.057 

> <ROCS_RefTversky>
0.791 

> <ROCS_RefColorTversky>
0.118 

> <ROCS_RefTverskyCombo>
0.909 

> <ROCS_FitTversky>
0.864 

> <ROCS_FitColorTversky>
0.099 

> <ROCS_FitTverskyCombo>
0.963 

> <ROCS_ColorScore>
-1.078

> <ROCS_Overlap>
1306.934

> <ROCS_Rank>
259                 

$$$$
ligprep_h3d.sdf:1455_1551
  -OEChem-08212117123D

 66 70  0     1  0  0  0  0  0999 V2000
  -21.2260   -4.1241  -31.5700 C   0  0  0  0  0  0  0  0  0  0  0  0
  -21.1111   -6.4917  -31.1030 C   0  0  0  0  0  0  0  0  0  0  0  0
  -20.7924   -4.3603  -32.8745 C   0  0  0  0  0  0  0  0  0  0  0  0
  -20.6776   -6.7280  -32.4075 C   0  0  0  0  0  0  0  0  0  0  0  0
  -16.9818   -4.7166  -26.1781 C   0  0  0  0  0  0  0  0  0  0  0  0
  -23.6413   -4.7200  -27.7381 C   0  0  0  0  0  0  0  0  0  0  0  0
  -20.9481   -3.9832  -24.6601 C   0  0  0  0  0  0  0  0  0  0  0  0
  -17.1964   -3.3487  -26.4326 C   0  0  0  0  0  0  0  0  0  0  0  0
  -21.3715   -4.4626  -26.9915 C   0  0  0  0  0  0  0  0  0  0  0  0
  -21.3852   -5.1897  -30.6842 C   0  0  0  0  0  0  0  0  0  0  0  0
  -20.5183   -5.6623  -33.2933 C   0  0  0  0  0  0  0  0  0  0  0  0
  -21.8367   -4.9443  -29.3246 C   0  0  0  0  0  0  0  0  0  0  0  0
  -23.1969   -4.9549  -29.0416 C   0  0  0  0  0  0  0  0  0  0  0  0
  -20.9242   -4.6988  -28.3026 C   0  0  0  0  0  0  0  0  0  0  0  0
  -22.7510   -4.4719  -26.6969 C   0  0  0  0  0  0  0  0  0  0  0  0
  -20.4749   -4.2127  -25.9439 C   0  0  0  0  0  0  0  0  0  0  0  0
  -22.3147   -4.0123  -24.4690 C   0  0  0  0  0  0  0  0  0  0  0  0
  -18.2378   -5.2255  -25.9550 C   0  0  0  0  0  0  0  0  0  0  0  0
  -20.0723   -5.9058  -34.6363 C   0  0  0  0  0  0  0  0  0  0  0  0
  -19.6663   -6.9126  -36.3973 C   0  0  0  0  0  0  0  0  0  0  0  0
  -22.8762   -3.7816  -23.1491 C   0  0  0  0  0  0  0  0  0  0  0  0
  -24.2199   -5.2121  -30.1021 C   0  0  0  0  0  0  0  0  0  0  0  0
  -19.4702   -4.7029  -28.6839 C   0  0  0  0  0  0  0  0  0  0  0  0
  -18.6743   -6.5992  -25.6368 C   0  0  0  0  0  0  0  0  0  0  0  0
  -26.9683   -2.7078  -23.0545 C   0  0  0  0  0  0  0  0  0  0  0  0
  -19.4803   -7.8382  -37.5228 C   0  0  0  0  0  0  0  0  0  0  0  0
  -24.9793   -3.5954  -21.7951 C   0  0  0  0  0  0  0  0  0  0  0  0
  -26.4831   -3.7209  -22.0263 C   0  0  2  0  0  0  0  0  0  0  0  0
  -18.4872   -3.0102  -26.3768 N   0  0  0  0  0  0  0  0  0  0  0  0
  -23.2132   -4.2495  -25.4520 N   0  0  0  0  0  0  0  0  0  0  0  0
  -20.1751   -7.1384  -35.2125 N   0  0  0  0  0  0  0  0  0  0  0  0
  -19.5336   -4.9506  -35.4000 N   0  0  0  0  0  0  0  0  0  0  0  0
  -19.0951   -4.1726  -26.0847 N   0  0  0  0  0  0  0  0  0  0  0  0
  -24.2711   -3.8268  -23.0336 N   0  0  0  0  0  0  0  0  0  0  0  0
  -22.1348   -3.5354  -22.1802 O   0  0  0  0  0  0  0  0  0  0  0  0
  -19.2582   -5.6313  -36.5927 O   0  0  0  0  0  0  0  0  0  0  0  0
  -20.4578   -7.5879  -38.5360 O   0  0  0  0  0  0  0  0  0  0  0  0
  -26.7617   -5.0328  -22.5120 O   0  0  0  0  0  0  0  0  0  0  0  0
  -21.4358   -3.1037  -31.2579 H   0  0  0  0  0  0  0  0  0  0  0  0
  -21.2304   -7.3329  -30.4242 H   0  0  0  0  0  0  0  0  0  0  0  0
  -20.6731   -3.5189  -33.5531 H   0  0  0  0  0  0  0  0  0  0  0  0
  -20.4679   -7.7487  -32.7186 H   0  0  0  0  0  0  0  0  0  0  0  0
  -16.0462   -5.2562  -26.1598 H   0  0  0  0  0  0  0  0  0  0  0  0
  -24.7108   -4.7313  -27.5306 H   0  0  0  0  0  0  0  0  0  0  0  0
  -20.2749   -3.7870  -23.8301 H   0  0  0  0  0  0  0  0  0  0  0  0
  -16.4658   -2.5847  -26.6566 H   0  0  0  0  0  0  0  0  0  0  0  0
  -24.5262   -4.2691  -30.5678 H   0  0  0  0  0  0  0  0  0  0  0  0
  -23.8235   -5.8755  -30.8794 H   0  0  0  0  0  0  0  0  0  0  0  0
  -25.1068   -5.7019  -29.6834 H   0  0  0  0  0  0  0  0  0  0  0  0
  -19.0630   -5.7117  -28.5795 H   0  0  0  0  0  0  0  0  0  0  0  0
  -19.3406   -4.3703  -29.7175 H   0  0  0  0  0  0  0  0  0  0  0  0
  -18.9014   -4.0200  -28.0467 H   0  0  0  0  0  0  0  0  0  0  0  0
  -18.6952   -6.7672  -24.5476 H   0  0  0  0  0  0  0  0  0  0  0  0
  -19.6832   -6.8140  -26.0285 H   0  0  0  0  0  0  0  0  0  0  0  0
  -18.0074   -7.3583  -26.0803 H   0  0  0  0  0  0  0  0  0  0  0  0
  -26.4384   -2.8207  -24.0052 H   0  0  0  0  0  0  0  0  0  0  0  0
  -28.0435   -2.8168  -23.2352 H   0  0  0  0  0  0  0  0  0  0  0  0
  -26.8129   -1.6868  -22.6895 H   0  0  0  0  0  0  0  0  0  0  0  0
  -18.4813   -7.7413  -37.9898 H   0  0  0  0  0  0  0  0  0  0  0  0
  -19.5771   -8.8970  -37.2152 H   0  0  0  0  0  0  0  0  0  0  0  0
  -24.7242   -2.5952  -21.4287 H   0  0  0  0  0  0  0  0  0  0  0  0
  -24.6389   -4.3288  -21.0569 H   0  0  0  0  0  0  0  0  0  0  0  0
  -27.0293   -3.5858  -21.0857 H   0  0  0  0  0  0  0  0  0  0  0  0
  -24.8327   -3.9689  -23.8668 H   0  0  0  0  0  0  0  0  0  0  0  0
  -20.2835   -8.2247  -39.2445 H   0  0  0  0  0  0  0  0  0  0  0  0
  -27.7225   -5.0838  -22.6309 H   0  0  0  0  0  0  0  0  0  0  0  0
  1  3  1  0  0  0  0
  1 10  2  0  0  0  0
  2  4  2  0  0  0  0
  2 10  1  0  0  0  0
  3 11  2  0  0  0  0
  4 11  1  0  0  0  0
  5  8  1  0  0  0  0
  5 18  2  0  0  0  0
  6 13  2  0  0  0  0
  6 15  1  0  0  0  0
  7 16  1  0  0  0  0
  7 17  2  0  0  0  0
  8 29  2  0  0  0  0
  9 14  1  0  0  0  0
  9 15  1  0  0  0  0
  9 16  2  0  0  0  0
 10 12  1  0  0  0  0
 11 19  1  0  0  0  0
 12 13  1  0  0  0  0
 12 14  2  0  0  0  0
 13 22  1  0  0  0  0
 14 23  1  0  0  0  0
 15 30  2  0  0  0  0
 16 33  1  0  0  0  0
 17 21  1  0  0  0  0
 17 30  1  0  0  0  0
 18 24  1  0  0  0  0
 18 33  1  0  0  0  0
 19 31  1  0  0  0  0
 19 32  2  0  0  0  0
 20 26  1  0  0  0  0
 20 31  2  0  0  0  0
 20 36  1  0  0  0  0
 21 34  1  0  0  0  0
 21 35  2  0  0  0  0
 25 28  1  0  0  0  0
 26 37  1  0  0  0  0
 27 28  1  0  0  0  0
 27 34  1  0  0  0  0
 28 38  1  0  0  0  0
 29 33  1  0  0  0  0
 32 36  1  0  0  0  0
  1 39  1  0  0  0  0
  2 40  1  0  0  0  0
  3 41  1  0  0  0  0
  4 42  1  0  0  0  0
  5 43  1  0  0  0  0
  6 44  1  0  0  0  0
  7 45  1  0  0  0  0
  8 46  1  0  0  0  0
 22 47  1  0  0  0  0
 22 48  1  0  0  0  0
 22 49  1  0  0  0  0
 23 50  1  0  0  0  0
 23 51  1  0  0  0  0
 23 52  1  0  0  0  0
 24 53  1  0  0  0  0
 24 54  1  0  0  0  0
 24 55  1  0  0  0  0
 25 56  1  0  0  0  0
 25 57  1  0  0  0  0
 25 58  1  0  0  0  0
 26 59  1  0  0  0  0
 26 60  1  0  0  0  0
 27 61  1  0  0  0  0
 27 62  1  0  0  0  0
 28 63  1  0  0  0  0
 34 64  1  0  0  0  0
 37 65  1  0  0  0  0
 38 66  1  0  0  0  0
M  END
> <SMILES>
C[C@@H](O)CNC(=O)c1cc(c2c(c(c(cc2n1)C)-c1ccc(cc1)-c1noc(n1)CO)C)-n1nccc1C

> <FORMATTED_ID>
H3D-012544

> <MOLFORMULA>
C28H28N6O4

> <Exact Mass>
512.22

> <XLogP>
3.74

> <TPSA_NOPS>
139.5

> <s_m_source_file>
ligprep_h3d.sdf

> <i_m_source_file_index>
1455

> <i_lp_mmshare_version>
55123

> <i_f3d_flags>
0

> <s_epik_input>
W0NIM11jMVtjSF1bY0hdbm4xLWMyW2NIXWMoQyg9TylbTkhdW0NIMl1bQ0BASF0oW0NIM10pW09IXSluYyhjMjMpW2NIXWMoW0NIM10pYyhjM1tDSDNdKS1jNFtjSF1bY0hdYyhbY0hdW2NIXTQpLWM1bm9jKG41KVtDSDJdW09IXQ==

> <s_epik_cmdline>
J2VwaWtfcHl0aG9uJywgJy1waHQnLCAnMC41JywgJy1waCcsICc3LjUnLCAnLXRuJywgJzgnLCAnLW1hJywgJzUwMCcsICctaW1hZScsICc8aW5maWxlLm1hZT4nLCAnLW9tYWUnLCAnPG91dGZpbGUubWFlPic=

> <r_lp_tautomer_probability>
1

> <r_epik_Ionization_Penalty>
0.000636365

> <r_epik_Ionization_Penalty_Charging>
0

> <r_epik_Ionization_Penalty_Neutral>
0.000636365

> <r_epik_State_Penalty>
-0

> <r_epik_Charging_Adjusted_Penalty>
0

> <i_epik_Tot_Q>
0

> <i_epik_Tot_abs_Q>
0

> <s_lp_Force_Field>
S-OPLS

> <r_lp_Energy>
56.0475

> <b_lp_Chiralities_Consistent>
1

> <s_lp_Variant>
ligprep_h3d.sdf:1455-1

> <ROCS_ShapeQuery>
_7L13

> <ROCS_TanimotoCombo>
0.733 

> <ROCS_ShapeTanimoto>
0.620 

> <ROCS_ColorTanimoto>
0.113 

> <ROCS_RefTversky>
0.790 

> <ROCS_RefColorTversky>
0.263 

> <ROCS_RefTverskyCombo>
1.053 

> <ROCS_FitTversky>
0.742 

> <ROCS_FitColorTversky>
0.166 

> <ROCS_FitTverskyCombo>
0.908 

> <ROCS_ColorScore>
-2.448

> <ROCS_Overlap>
1316.755

> <ROCS_Rank>
260                 

$$$$
ligprep_h3d.sdf:1270_48
  -OEChem-08212117123D

 60 66  0     1  0  0  0  0  0999 V2000
  -22.4365   -2.9235  -22.0409 C   0  0  0  0  0  0  0  0  0  0  0  0
  -20.9263   -5.1130  -29.5439 C   0  0  0  0  0  0  0  0  0  0  0  0
  -21.7207   -4.3604  -30.4113 C   0  0  0  0  0  0  0  0  0  0  0  0
  -21.0526   -4.9023  -28.1495 C   0  0  0  0  0  0  0  0  0  0  0  0
  -21.9804   -3.9890  -27.5991 C   0  0  0  0  0  0  0  0  0  0  0  0
  -22.5985   -3.4467  -29.8707 C   0  0  0  0  0  0  0  0  0  0  0  0
  -22.7590   -3.2266  -28.5026 C   0  0  0  0  0  0  0  0  0  0  0  0
  -21.9148   -4.2310  -31.7992 C   0  0  0  0  0  0  0  0  0  0  0  0
  -18.9046   -3.7857  -26.2861 C   0  0  0  0  0  0  0  0  0  0  0  0
  -19.1534   -6.0548  -25.0860 C   0  0  0  0  0  0  0  0  0  0  0  0
  -16.9364   -5.2422  -25.8640 C   0  0  0  0  0  0  0  0  0  0  0  0
  -20.4437   -4.3939  -33.7570 C   0  0  0  0  0  0  0  0  0  0  0  0
  -20.1722   -5.7129  -27.2390 C   0  0  0  0  0  0  0  0  0  0  0  0
  -20.7055   -7.7559  -35.0263 C   0  0  0  0  0  0  0  0  0  0  0  0
  -19.5102   -7.8551  -34.1198 C   0  0  0  0  0  0  0  0  0  0  0  0
  -23.1636   -2.9962  -25.6661 C   0  0  0  0  0  0  0  0  0  0  0  0
  -21.2884   -6.4060  -32.8630 C   0  0  0  0  0  0  0  0  0  0  0  0
  -21.1616   -4.4844  -25.2557 C   0  0  2  0  0  0  0  0  0  0  0  0
  -23.5273   -3.3344  -24.2222 C   0  0  1  0  0  0  0  0  0  0  0  0
  -20.9955   -3.5183  -24.0345 C   0  0  2  0  0  0  0  0  0  0  0  0
  -19.8310   -4.9600  -25.9284 C   0  0  0  0  0  0  0  0  0  0  0  0
  -20.4196   -6.6639  -34.0371 C   0  0  0  0  0  0  0  0  0  0  0  0
  -24.3232   -4.6332  -24.0864 C   0  0  0  0  0  0  0  0  0  0  0  0
  -19.9294   -3.9526  -23.0202 C   0  0  0  0  0  0  0  0  0  0  0  0
  -22.5284   -2.5425  -20.9491 N   0  0  0  0  0  0  0  0  0  0  0  0
  -22.8360   -3.3101  -32.0985 N   0  0  0  0  0  0  0  0  0  0  0  0
  -17.5556   -4.0982  -26.3474 N   0  0  0  0  0  0  0  0  0  0  0  0
  -17.7775   -6.1467  -25.2314 N   0  0  0  0  0  0  0  0  0  0  0  0
  -22.3293   -3.3683  -23.3158 N   0  0  0  0  0  0  0  0  0  0  0  0
  -22.1012   -3.8455  -26.2132 N   0  0  3  0  0  0  0  0  0  0  0  0
  -21.2451   -4.9601  -32.7620 N   0  0  0  0  0  0  0  0  0  0  0  0
  -19.3181   -2.6597  -26.5627 O   0  0  0  0  0  0  0  0  0  0  0  0
  -19.7856   -6.8559  -24.3963 O   0  0  0  0  0  0  0  0  0  0  0  0
  -15.7208   -5.4225  -25.9532 O   0  0  0  0  0  0  0  0  0  0  0  0
  -20.1996   -3.2106  -33.9497 O   0  0  0  0  0  0  0  0  0  0  0  0
  -23.2660   -2.8132  -30.8736 O   0  0  0  0  0  0  0  0  0  0  0  0
  -19.9390   -5.4088  -34.5333 O   0  0  0  0  0  0  0  0  0  0  0  0
  -23.7014   -2.3590  -28.1089 F   0  0  0  0  0  0  0  0  0  0  0  0
  -20.2275   -5.8482  -29.9300 H   0  0  0  0  0  0  0  0  0  0  0  0
  -20.7101   -6.6335  -27.0154 H   0  0  0  0  0  0  0  0  0  0  0  0
  -19.2586   -5.9782  -27.7672 H   0  0  0  0  0  0  0  0  0  0  0  0
  -20.5267   -7.5555  -36.0756 H   0  0  0  0  0  0  0  0  0  0  0  0
  -21.5362   -8.4238  -34.8334 H   0  0  0  0  0  0  0  0  0  0  0  0
  -19.5453   -8.5889  -33.3240 H   0  0  0  0  0  0  0  0  0  0  0  0
  -18.5304   -7.7194  -34.5610 H   0  0  0  0  0  0  0  0  0  0  0  0
  -24.0360   -3.0293  -26.3419 H   0  0  0  0  0  0  0  0  0  0  0  0
  -22.8613   -1.9382  -25.6235 H   0  0  0  0  0  0  0  0  0  0  0  0
  -22.3238   -6.7218  -33.0241 H   0  0  0  0  0  0  0  0  0  0  0  0
  -20.8934   -6.8407  -31.9396 H   0  0  0  0  0  0  0  0  0  0  0  0
  -21.6918   -5.3658  -24.8587 H   0  0  0  0  0  0  0  0  0  0  0  0
  -24.1630   -2.5047  -23.8403 H   0  0  0  0  0  0  0  0  0  0  0  0
  -20.7156   -2.5407  -24.3807 H   0  0  0  0  0  0  0  0  0  0  0  0
  -23.7287   -5.4679  -24.4521 H   0  0  0  0  0  0  0  0  0  0  0  0
  -25.2400   -4.5643  -24.6682 H   0  0  0  0  0  0  0  0  0  0  0  0
  -24.5738   -4.8025  -23.0411 H   0  0  0  0  0  0  0  0  0  0  0  0
  -20.1700   -4.9421  -22.6390 H   0  0  0  0  0  0  0  0  0  0  0  0
  -19.9018   -3.2456  -22.1945 H   0  0  0  0  0  0  0  0  0  0  0  0
  -18.9557   -3.9799  -23.5035 H   0  0  0  0  0  0  0  0  0  0  0  0
  -16.9545   -3.4157  -26.7947 H   0  0  0  0  0  0  0  0  0  0  0  0
  -17.3357   -6.9691  -24.8293 H   0  0  0  0  0  0  0  0  0  0  0  0
  1 25  3  0  0  0  0
  1 29  1  0  0  0  0
  2  3  2  0  0  0  0
  2  4  1  0  0  0  0
  3  6  1  0  0  0  0
  3  8  1  0  0  0  0
  4  5  2  0  0  0  0
  4 13  1  0  0  0  0
  5  7  1  0  0  0  0
  5 30  1  0  0  0  0
  6  7  2  0  0  0  0
  6 36  1  0  0  0  0
  7 38  1  0  0  0  0
  8 26  2  0  0  0  0
  8 31  1  0  0  0  0
  9 21  1  0  0  0  0
  9 27  1  0  0  0  0
  9 32  2  0  0  0  0
 10 21  1  0  0  0  0
 10 28  1  0  0  0  0
 10 33  2  0  0  0  0
 11 27  1  0  0  0  0
 11 28  1  0  0  0  0
 11 34  2  0  0  0  0
 12 31  1  0  0  0  0
 12 35  2  0  0  0  0
 12 37  1  0  0  0  0
 13 21  1  0  0  0  0
 14 15  1  0  0  0  0
 14 22  1  0  0  0  0
 15 22  1  0  0  0  0
 16 19  1  0  0  0  0
 16 30  1  0  0  0  0
 17 22  1  0  0  0  0
 17 31  1  0  0  0  0
 18 20  1  0  0  0  0
 18 21  1  0  0  0  0
 18 30  1  0  0  0  0
 19 23  1  0  0  0  0
 19 29  1  0  0  0  0
 20 24  1  0  0  0  0
 20 29  1  0  0  0  0
 22 37  1  0  0  0  0
 26 36  1  0  0  0  0
  2 39  1  0  0  0  0
 13 40  1  0  0  0  0
 13 41  1  0  0  0  0
 14 42  1  0  0  0  0
 14 43  1  0  0  0  0
 15 44  1  0  0  0  0
 15 45  1  0  0  0  0
 16 46  1  0  0  0  0
 16 47  1  0  0  0  0
 17 48  1  0  0  0  0
 17 49  1  0  0  0  0
 18 50  1  0  0  0  0
 19 51  1  0  0  0  0
 20 52  1  0  0  0  0
 23 53  1  0  0  0  0
 23 54  1  0  0  0  0
 23 55  1  0  0  0  0
 24 56  1  0  0  0  0
 24 57  1  0  0  0  0
 24 58  1  0  0  0  0
 27 59  1  0  0  0  0
 28 60  1  0  0  0  0
M  END
> <SMILES>
C[C@@H]1CN2[C@H]([C@H](C)N1C#N)C1(Cc3cc4c(noc4c(c32)F)N2CC3(CC3)OC2=O)C(=O)NC(=O)NC1=O

> <FORMATTED_ID>
H3D-008570

> <MOLFORMULA>
C24H22FN7O6

> <Exact Mass>
523.16

> <XLogP>
0.57

> <TPSA_NOPS>
161.4

> <s_m_source_file>
ligprep_h3d.sdf

> <i_m_source_file_index>
1270

> <i_lp_mmshare_version>
55123

> <i_f3d_flags>
0

> <s_epik_input>
Tz1DMVtOSF1DKD1PKVtOSF1DKD1PKUMxMltDQEBIXTNOKFtDSDJdW0NAQEhdKFtDSDNdKU4oQyNOKVtDQEhdM1tDSDNdKWM0YyhbQ0gyXTIpW2NIXWM1YyhjNEYpb25jNU4oQyhPNik9TylbQ0gyXUM2N1tDSDJdW0NIMl03

> <s_epik_cmdline>
J2VwaWtfcHl0aG9uJywgJy1waHQnLCAnMC41JywgJy1waCcsICc3LjUnLCAnLXRuJywgJzgnLCAnLW1hJywgJzUwMCcsICctaW1hZScsICc8aW5maWxlLm1hZT4nLCAnLW9tYWUnLCAnPG91dGZpbGUubWFlPic=

> <r_lp_tautomer_probability>
1

> <r_epik_Ionization_Penalty>
0.218697

> <r_epik_Ionization_Penalty_Charging>
0

> <r_epik_Ionization_Penalty_Neutral>
0.218697

> <r_epik_State_Penalty>
0.208986

> <r_epik_Charging_Adjusted_Penalty>
0.208986

> <i_epik_Tot_Q>
0

> <i_epik_Tot_abs_Q>
0

> <s_epik_Chemistry_Notes>
This compound has an ester and may undergo hydrolysis at high or low pH.

> <s_lp_Force_Field>
S-OPLS

> <r_lp_Energy>
52.384

> <b_lp_Chiralities_Consistent>
1

> <s_lp_Variant>
ligprep_h3d.sdf:1270-1

> <ROCS_ShapeQuery>
_7L13

> <ROCS_TanimotoCombo>
0.741 

> <ROCS_ShapeTanimoto>
0.610 

> <ROCS_ColorTanimoto>
0.130 

> <ROCS_RefTversky>
0.790 

> <ROCS_RefColorTversky>
0.298 

> <ROCS_RefTverskyCombo>
1.088 

> <ROCS_FitTversky>
0.729 

> <ROCS_FitColorTversky>
0.188 

> <ROCS_FitTverskyCombo>
0.917 

> <ROCS_ColorScore>
-2.773

> <ROCS_Overlap>
1317.986

> <ROCS_Rank>
261                 

$$$$
ligprep_h3d.sdf:441_144
  -OEChem-08212117123D

 66 71  0     1  0  0  0  0  0999 V2000
  -20.9967   -5.1624  -29.5001 C   0  0  0  0  0  0  0  0  0  0  0  0
  -21.7589   -4.3935  -30.3818 C   0  0  0  0  0  0  0  0  0  0  0  0
  -21.1057   -4.9145  -28.1100 C   0  0  0  0  0  0  0  0  0  0  0  0
  -21.9880   -3.9453  -27.5774 C   0  0  0  0  0  0  0  0  0  0  0  0
  -22.5901   -3.4276  -29.8591 C   0  0  0  0  0  0  0  0  0  0  0  0
  -22.7334   -3.1684  -28.4957 C   0  0  0  0  0  0  0  0  0  0  0  0
  -21.9536   -4.2873  -31.7715 C   0  0  0  0  0  0  0  0  0  0  0  0
  -18.9214   -3.8839  -26.1983 C   0  0  0  0  0  0  0  0  0  0  0  0
  -19.3036   -6.1396  -25.0100 C   0  0  0  0  0  0  0  0  0  0  0  0
  -17.0308   -5.4212  -25.7149 C   0  0  0  0  0  0  0  0  0  0  0  0
  -20.2540   -5.7481  -27.1902 C   0  0  0  0  0  0  0  0  0  0  0  0
  -20.7311   -6.9487  -34.0094 C   0  0  0  0  0  0  0  0  0  0  0  0
  -21.3852   -6.5552  -32.6855 C   0  0  0  0  0  0  0  0  0  0  0  0
  -20.3793   -4.6010  -33.7020 C   0  0  0  0  0  0  0  0  0  0  0  0
  -23.0312   -2.7745  -25.6476 C   0  0  0  0  0  0  0  0  0  0  0  0
  -21.2268   -4.4866  -25.2297 C   0  0  2  0  0  0  0  0  0  0  0  0
  -19.6810   -5.8672  -34.1903 C   0  0  2  0  0  0  0  0  0  0  0  0
  -23.4079   -3.0748  -24.1941 C   0  0  1  0  0  0  0  0  0  0  0  0
  -21.0436   -3.5513  -23.9992 C   0  0  2  0  0  0  0  0  0  0  0  0
  -19.9077   -5.0167  -25.8693 C   0  0  0  0  0  0  0  0  0  0  0  0
  -24.4178   -4.2144  -24.0716 C   0  0  0  0  0  0  0  0  0  0  0  0
  -20.0989   -4.0492  -22.9117 C   0  0  0  0  0  0  0  0  0  0  0  0
  -17.9881   -4.9912  -35.7742 C   0  0  0  0  0  0  0  0  0  0  0  0
  -19.2375   -7.0783  -36.3068 C   0  0  0  0  0  0  0  0  0  0  0  0
  -22.8329   -3.3320  -32.0885 N   0  0  0  0  0  0  0  0  0  0  0  0
  -17.5855   -4.2526  -26.2165 N   0  0  0  0  0  0  0  0  0  0  0  0
  -17.9291   -6.2891  -25.1104 N   0  0  0  0  0  0  0  0  0  0  0  0
  -22.0950   -3.7641  -26.1964 N   0  0  3  0  0  0  0  0  0  0  0  0
  -21.2870   -5.0963  -32.6667 N   0  0  0  0  0  0  0  0  0  0  0  0
  -19.2821   -5.7456  -35.6035 N   0  3  0  0  0  0  0  0  0  0  0  0
  -19.2774   -2.7422  -26.4901 O   0  0  0  0  0  0  0  0  0  0  0  0
  -19.9912   -6.9157  -24.3451 O   0  0  0  0  0  0  0  0  0  0  0  0
  -15.8217   -5.6530  -25.7660 O   0  0  0  0  0  0  0  0  0  0  0  0
  -23.2330   -2.7873  -30.8738 O   0  0  0  0  0  0  0  0  0  0  0  0
  -22.3018   -3.3553  -23.3418 O   0  0  0  0  0  0  0  0  0  0  0  0
  -23.4934   -2.1278  -28.1345 F   0  0  0  0  0  0  0  0  0  0  0  0
  -20.3254   -5.9305  -29.8737 H   0  0  0  0  0  0  0  0  0  0  0  0
  -20.8019   -6.6788  -26.9883 H   0  0  0  0  0  0  0  0  0  0  0  0
  -19.3285   -6.0347  -27.7083 H   0  0  0  0  0  0  0  0  0  0  0  0
  -20.2430   -7.9200  -33.9039 H   0  0  0  0  0  0  0  0  0  0  0  0
  -21.4463   -7.0072  -34.8281 H   0  0  0  0  0  0  0  0  0  0  0  0
  -22.4387   -6.8577  -32.6599 H   0  0  0  0  0  0  0  0  0  0  0  0
  -20.8664   -7.0144  -31.8367 H   0  0  0  0  0  0  0  0  0  0  0  0
  -19.6539   -3.9184  -33.2485 H   0  0  0  0  0  0  0  0  0  0  0  0
  -20.9074   -4.0711  -34.4998 H   0  0  0  0  0  0  0  0  0  0  0  0
  -23.9434   -2.7995  -26.2791 H   0  0  0  0  0  0  0  0  0  0  0  0
  -22.6971   -1.7266  -25.6922 H   0  0  0  0  0  0  0  0  0  0  0  0
  -21.8236   -5.3510  -24.8994 H   0  0  0  0  0  0  0  0  0  0  0  0
  -18.7514   -6.0853  -33.6176 H   0  0  0  0  0  0  0  0  0  0  0  0
  -23.9352   -2.1541  -23.7632 H   0  0  0  0  0  0  0  0  0  0  0  0
  -20.6770   -2.5571  -24.3140 H   0  0  0  0  0  0  0  0  0  0  0  0
  -23.9891   -5.1367  -24.4640 H   0  0  0  0  0  0  0  0  0  0  0  0
  -25.3197   -3.9759  -24.6355 H   0  0  0  0  0  0  0  0  0  0  0  0
  -24.6845   -4.3656  -23.0254 H   0  0  0  0  0  0  0  0  0  0  0  0
  -20.4165   -5.0321  -22.5635 H   0  0  0  0  0  0  0  0  0  0  0  0
  -20.1026   -3.3573  -22.0695 H   0  0  0  0  0  0  0  0  0  0  0  0
  -19.0848   -4.1235  -23.3045 H   0  0  0  0  0  0  0  0  0  0  0  0
  -17.2021   -5.5586  -35.2726 H   0  0  0  0  0  0  0  0  0  0  0  0
  -17.7893   -4.9066  -36.8443 H   0  0  0  0  0  0  0  0  0  0  0  0
  -18.1128   -4.0068  -35.3191 H   0  0  0  0  0  0  0  0  0  0  0  0
  -18.4777   -7.6894  -35.8163 H   0  0  0  0  0  0  0  0  0  0  0  0
  -20.2252   -7.5352  -36.2199 H   0  0  0  0  0  0  0  0  0  0  0  0
  -18.9799   -6.8961  -37.3519 H   0  0  0  0  0  0  0  0  0  0  0  0
  -16.9413   -3.5945  -26.6444 H   0  0  0  0  0  0  0  0  0  0  0  0
  -17.5282   -7.0980  -24.6445 H   0  0  0  0  0  0  0  0  0  0  0  0
  -20.0066   -5.1889  -36.0859 H   0  0  0  0  0  0  0  0  0  0  0  0
  1  2  2  0  0  0  0
  1  3  1  0  0  0  0
  2  5  1  0  0  0  0
  2  7  1  0  0  0  0
  3  4  2  0  0  0  0
  3 11  1  0  0  0  0
  4  6  1  0  0  0  0
  4 28  1  0  0  0  0
  5  6  2  0  0  0  0
  5 34  1  0  0  0  0
  6 36  1  0  0  0  0
  7 25  2  0  0  0  0
  7 29  1  0  0  0  0
  8 20  1  0  0  0  0
  8 26  1  0  0  0  0
  8 31  2  0  0  0  0
  9 20  1  0  0  0  0
  9 27  1  0  0  0  0
  9 32  2  0  0  0  0
 10 26  1  0  0  0  0
 10 27  1  0  0  0  0
 10 33  2  0  0  0  0
 11 20  1  0  0  0  0
 12 13  1  0  0  0  0
 12 17  1  0  0  0  0
 13 29  1  0  0  0  0
 14 17  1  0  0  0  0
 14 29  1  0  0  0  0
 15 18  1  0  0  0  0
 15 28  1  0  0  0  0
 16 19  1  0  0  0  0
 16 20  1  0  0  0  0
 16 28  1  0  0  0  0
 17 30  1  0  0  0  0
 18 21  1  0  0  0  0
 18 35  1  0  0  0  0
 19 22  1  0  0  0  0
 19 35  1  0  0  0  0
 23 30  1  0  0  0  0
 24 30  1  0  0  0  0
 25 34  1  0  0  0  0
  1 37  1  0  0  0  0
 11 38  1  0  0  0  0
 11 39  1  0  0  0  0
 12 40  1  0  0  0  0
 12 41  1  0  0  0  0
 13 42  1  0  0  0  0
 13 43  1  0  0  0  0
 14 44  1  0  0  0  0
 14 45  1  0  0  0  0
 15 46  1  0  0  0  0
 15 47  1  0  0  0  0
 16 48  1  0  0  0  0
 17 49  1  0  0  0  0
 18 50  1  0  0  0  0
 19 51  1  0  0  0  0
 21 52  1  0  0  0  0
 21 53  1  0  0  0  0
 21 54  1  0  0  0  0
 22 55  1  0  0  0  0
 22 56  1  0  0  0  0
 22 57  1  0  0  0  0
 23 58  1  0  0  0  0
 23 59  1  0  0  0  0
 23 60  1  0  0  0  0
 24 61  1  0  0  0  0
 24 62  1  0  0  0  0
 24 63  1  0  0  0  0
 26 64  1  0  0  0  0
 27 65  1  0  0  0  0
 30 66  1  0  0  0  0
M  CHG  1  30   1
M  END
> <SMILES>
CC1CN2C(C(C)O1)C1(Cc3cc4c(noc4c(c32)F)N2CC[C@H](C2)N(C)C)C(=O)NC(=O)NC1=O

> <FORMATTED_ID>
H3D-003946

> <MOLFORMULA>
C24H29FN6O5

> <Exact Mass>
500.22

> <XLogP>
0.55

> <TPSA_NOPS>
120.6

> <s_m_source_file>
ligprep_h3d.sdf

> <i_m_source_file_index>
441

> <i_lp_mmshare_version>
55123

> <i_f3d_flags>
0

> <s_epik_input>
Tz1DMVtOSF1DKD1PKVtOSF1DKD1PKUMxMltDQEBIXTNOKFtDSDJdW0NAQEhdKFtDSDNdKU9bQ0BIXTNbQ0gzXSljNGMoW0NIMl0yKVtjSF1jNWMoYzRGKW9uYzVONltDSDJdW0NIMl1bQ0BIXShbQ0gyXTYpTihbQ0gzXSlbQ0gzXQ==

> <s_epik_cmdline>
J2VwaWtfcHl0aG9uJywgJy1waHQnLCAnMC41JywgJy1waCcsICc3LjUnLCAnLXRuJywgJzgnLCAnLW1hJywgJzUwMCcsICctaW1hZScsICc8aW5maWxlLm1hZT4nLCAnLW9tYWUnLCAnPG91dGZpbGUubWFlPic=

> <r_lp_tautomer_probability>
1

> <r_epik_Ionization_Penalty>
0.383675

> <r_epik_Ionization_Penalty_Charging>
0.0145502

> <r_epik_Ionization_Penalty_Neutral>
0.369125

> <r_epik_State_Penalty>
0.366447

> <r_epik_Charging_Adjusted_Penalty>
0.380997

> <i_epik_Tot_Q>
1

> <i_epik_Tot_abs_Q>
1

> <s_lp_Force_Field>
S-OPLS

> <r_lp_Energy>
64.5754

> <b_lp_Chiralities_Consistent>
1

> <s_lp_Variant>
ligprep_h3d.sdf:441-1

> <ROCS_ShapeQuery>
_7L13

> <ROCS_TanimotoCombo>
0.774 

> <ROCS_ShapeTanimoto>
0.644 

> <ROCS_ColorTanimoto>
0.130 

> <ROCS_RefTversky>
0.790 

> <ROCS_RefColorTversky>
0.298 

> <ROCS_RefTverskyCombo>
1.088 

> <ROCS_FitTversky>
0.777 

> <ROCS_FitColorTversky>
0.188 

> <ROCS_FitTverskyCombo>
0.965 

> <ROCS_ColorScore>
-2.773

> <ROCS_Overlap>
1313.081

> <ROCS_Rank>
262                 

$$$$
ligprep_h3d.sdf:1238_48
  -OEChem-08212117123D

 60 66  0     1  0  0  0  0  0999 V2000
  -22.4350   -2.9225  -22.0391 C   0  0  0  0  0  0  0  0  0  0  0  0
  -20.9286   -5.1132  -29.5424 C   0  0  0  0  0  0  0  0  0  0  0  0
  -21.7249   -4.3623  -30.4095 C   0  0  0  0  0  0  0  0  0  0  0  0
  -21.0539   -4.9020  -28.1481 C   0  0  0  0  0  0  0  0  0  0  0  0
  -21.9825   -3.9899  -27.5972 C   0  0  0  0  0  0  0  0  0  0  0  0
  -22.6036   -3.4497  -29.8685 C   0  0  0  0  0  0  0  0  0  0  0  0
  -22.7631   -3.2292  -28.5004 C   0  0  0  0  0  0  0  0  0  0  0  0
  -21.9205   -4.2338  -31.7972 C   0  0  0  0  0  0  0  0  0  0  0  0
  -18.9058   -3.7814  -26.2872 C   0  0  0  0  0  0  0  0  0  0  0  0
  -19.1500   -6.0502  -25.0858 C   0  0  0  0  0  0  0  0  0  0  0  0
  -16.9350   -5.2346  -25.8663 C   0  0  0  0  0  0  0  0  0  0  0  0
  -20.4509   -4.3954  -33.7564 C   0  0  0  0  0  0  0  0  0  0  0  0
  -20.1714   -5.7109  -27.2379 C   0  0  0  0  0  0  0  0  0  0  0  0
  -20.7089   -7.7584  -35.0238 C   0  0  0  0  0  0  0  0  0  0  0  0
  -19.5126   -7.8554  -34.1184 C   0  0  0  0  0  0  0  0  0  0  0  0
  -23.1654   -2.9980  -25.6636 C   0  0  0  0  0  0  0  0  0  0  0  0
  -21.2918   -6.4084  -32.8606 C   0  0  0  0  0  0  0  0  0  0  0  0
  -21.1607   -4.4830  -25.2543 C   0  0  2  0  0  0  0  0  0  0  0  0
  -23.5272   -3.3360  -24.2191 C   0  0  1  0  0  0  0  0  0  0  0  0
  -20.9950   -3.5160  -24.0337 C   0  0  2  0  0  0  0  0  0  0  0  0
  -19.8300   -4.9568  -25.9280 C   0  0  0  0  0  0  0  0  0  0  0  0
  -20.4237   -6.6656  -34.0354 C   0  0  0  0  0  0  0  0  0  0  0  0
  -24.3210   -4.6360  -24.0820 C   0  0  0  0  0  0  0  0  0  0  0  0
  -19.9272   -3.9482  -23.0203 C   0  0  0  0  0  0  0  0  0  0  0  0
  -22.5265   -2.5410  -20.9474 N   0  0  0  0  0  0  0  0  0  0  0  0
  -22.8433   -3.3145  -32.0961 N   0  0  0  0  0  0  0  0  0  0  0  0
  -17.5564   -4.0918  -26.3496 N   0  0  0  0  0  0  0  0  0  0  0  0
  -17.7742   -6.1401  -25.2324 N   0  0  0  0  0  0  0  0  0  0  0  0
  -22.3284   -3.3677  -23.3139 N   0  0  0  0  0  0  0  0  0  0  0  0
  -22.1022   -3.8460  -26.2113 N   0  0  3  0  0  0  0  0  0  0  0  0
  -21.2506   -4.9624  -32.7603 N   0  0  0  0  0  0  0  0  0  0  0  0
  -19.3212   -2.6561  -26.5639 O   0  0  0  0  0  0  0  0  0  0  0  0
  -19.7803   -6.8520  -24.3951 O   0  0  0  0  0  0  0  0  0  0  0  0
  -15.7192   -5.4132  -25.9565 O   0  0  0  0  0  0  0  0  0  0  0  0
  -20.2089   -3.2118  -33.9499 O   0  0  0  0  0  0  0  0  0  0  0  0
  -23.2730   -2.8176  -30.8711 O   0  0  0  0  0  0  0  0  0  0  0  0
  -19.9454   -5.4100  -34.5327 O   0  0  0  0  0  0  0  0  0  0  0  0
  -23.7065   -2.3628  -28.1062 F   0  0  0  0  0  0  0  0  0  0  0  0
  -20.2290   -5.8476  -29.9289 H   0  0  0  0  0  0  0  0  0  0  0  0
  -20.7076   -6.6322  -27.0134 H   0  0  0  0  0  0  0  0  0  0  0  0
  -19.2578   -5.9750  -27.7670 H   0  0  0  0  0  0  0  0  0  0  0  0
  -20.5314   -7.5583  -36.0734 H   0  0  0  0  0  0  0  0  0  0  0  0
  -21.5384   -8.4275  -34.8299 H   0  0  0  0  0  0  0  0  0  0  0  0
  -19.5458   -8.5889  -33.3222 H   0  0  0  0  0  0  0  0  0  0  0  0
  -18.5334   -7.7185  -34.5606 H   0  0  0  0  0  0  0  0  0  0  0  0
  -24.0384   -3.0327  -26.3385 H   0  0  0  0  0  0  0  0  0  0  0  0
  -22.8646   -1.9395  -25.6218 H   0  0  0  0  0  0  0  0  0  0  0  0
  -22.3268   -6.7259  -33.0206 H   0  0  0  0  0  0  0  0  0  0  0  0
  -20.8953   -6.8421  -31.9374 H   0  0  0  0  0  0  0  0  0  0  0  0
  -21.6892   -5.3650  -24.8564 H   0  0  0  0  0  0  0  0  0  0  0  0
  -24.1639   -2.5072  -23.8370 H   0  0  0  0  0  0  0  0  0  0  0  0
  -20.7169   -2.5381  -24.3807 H   0  0  0  0  0  0  0  0  0  0  0  0
  -23.7257   -5.4700  -24.4479 H   0  0  0  0  0  0  0  0  0  0  0  0
  -25.2385   -4.5688  -24.6630 H   0  0  0  0  0  0  0  0  0  0  0  0
  -24.5704   -4.8052  -23.0364 H   0  0  0  0  0  0  0  0  0  0  0  0
  -20.1660   -4.9379  -22.6383 H   0  0  0  0  0  0  0  0  0  0  0  0
  -19.9000   -3.2408  -22.1950 H   0  0  0  0  0  0  0  0  0  0  0  0
  -18.9539   -3.9743  -23.5045 H   0  0  0  0  0  0  0  0  0  0  0  0
  -16.9567   -3.4086  -26.7978 H   0  0  0  0  0  0  0  0  0  0  0  0
  -17.3307   -6.9617  -24.8303 H   0  0  0  0  0  0  0  0  0  0  0  0
  1 25  3  0  0  0  0
  1 29  1  0  0  0  0
  2  3  2  0  0  0  0
  2  4  1  0  0  0  0
  3  6  1  0  0  0  0
  3  8  1  0  0  0  0
  4  5  2  0  0  0  0
  4 13  1  0  0  0  0
  5  7  1  0  0  0  0
  5 30  1  0  0  0  0
  6  7  2  0  0  0  0
  6 36  1  0  0  0  0
  7 38  1  0  0  0  0
  8 26  2  0  0  0  0
  8 31  1  0  0  0  0
  9 21  1  0  0  0  0
  9 27  1  0  0  0  0
  9 32  2  0  0  0  0
 10 21  1  0  0  0  0
 10 28  1  0  0  0  0
 10 33  2  0  0  0  0
 11 27  1  0  0  0  0
 11 28  1  0  0  0  0
 11 34  2  0  0  0  0
 12 31  1  0  0  0  0
 12 35  2  0  0  0  0
 12 37  1  0  0  0  0
 13 21  1  0  0  0  0
 14 15  1  0  0  0  0
 14 22  1  0  0  0  0
 15 22  1  0  0  0  0
 16 19  1  0  0  0  0
 16 30  1  0  0  0  0
 17 22  1  0  0  0  0
 17 31  1  0  0  0  0
 18 20  1  0  0  0  0
 18 21  1  0  0  0  0
 18 30  1  0  0  0  0
 19 23  1  0  0  0  0
 19 29  1  0  0  0  0
 20 24  1  0  0  0  0
 20 29  1  0  0  0  0
 22 37  1  0  0  0  0
 26 36  1  0  0  0  0
  2 39  1  0  0  0  0
 13 40  1  0  0  0  0
 13 41  1  0  0  0  0
 14 42  1  0  0  0  0
 14 43  1  0  0  0  0
 15 44  1  0  0  0  0
 15 45  1  0  0  0  0
 16 46  1  0  0  0  0
 16 47  1  0  0  0  0
 17 48  1  0  0  0  0
 17 49  1  0  0  0  0
 18 50  1  0  0  0  0
 19 51  1  0  0  0  0
 20 52  1  0  0  0  0
 23 53  1  0  0  0  0
 23 54  1  0  0  0  0
 23 55  1  0  0  0  0
 24 56  1  0  0  0  0
 24 57  1  0  0  0  0
 24 58  1  0  0  0  0
 27 59  1  0  0  0  0
 28 60  1  0  0  0  0
M  END
> <SMILES>
CC1CN2C(C(C)N1C#N)C1(Cc3cc4c(noc4c(c32)F)N2CC3(CC3)OC2=O)C(=O)NC(=O)NC1=O

> <FORMATTED_ID>
H3D-008463

> <MOLFORMULA>
C24H22FN7O6

> <Exact Mass>
523.16

> <XLogP>
0.57

> <TPSA_NOPS>
161.4

> <s_m_source_file>
ligprep_h3d.sdf

> <i_m_source_file_index>
1238

> <i_lp_mmshare_version>
55123

> <i_f3d_flags>
0

> <s_epik_input>
Tz1DMVtOSF1DKD1PKVtOSF1DKD1PKUMxMltDQEBIXTNOKFtDSDJdW0NAQEhdKFtDSDNdKU4oQyNOKVtDQEhdM1tDSDNdKWM0YyhbQ0gyXTIpW2NIXWM1YyhjNEYpb25jNU4oQyhPNik9TylbQ0gyXUM2N1tDSDJdW0NIMl03

> <s_epik_cmdline>
J2VwaWtfcHl0aG9uJywgJy1waHQnLCAnMC41JywgJy1waCcsICc3LjUnLCAnLXRuJywgJzgnLCAnLW1hJywgJzUwMCcsICctaW1hZScsICc8aW5maWxlLm1hZT4nLCAnLW9tYWUnLCAnPG91dGZpbGUubWFlPic=

> <r_lp_tautomer_probability>
1

> <r_epik_Ionization_Penalty>
0.218697

> <r_epik_Ionization_Penalty_Charging>
0

> <r_epik_Ionization_Penalty_Neutral>
0.218697

> <r_epik_State_Penalty>
0.208986

> <r_epik_Charging_Adjusted_Penalty>
0.208986

> <i_epik_Tot_Q>
0

> <i_epik_Tot_abs_Q>
0

> <s_epik_Chemistry_Notes>
This compound has an ester and may undergo hydrolysis at high or low pH.

> <s_lp_Force_Field>
S-OPLS

> <r_lp_Energy>
52.384

> <b_lp_Chiralities_Consistent>
1

> <s_lp_Variant>
ligprep_h3d.sdf:1238-1

> <ROCS_ShapeQuery>
_7L13

> <ROCS_TanimotoCombo>
0.741 

> <ROCS_ShapeTanimoto>
0.610 

> <ROCS_ColorTanimoto>
0.130 

> <ROCS_RefTversky>
0.790 

> <ROCS_RefColorTversky>
0.298 

> <ROCS_RefTverskyCombo>
1.088 

> <ROCS_FitTversky>
0.729 

> <ROCS_FitColorTversky>
0.188 

> <ROCS_FitTverskyCombo>
0.917 

> <ROCS_ColorScore>
-2.773

> <ROCS_Overlap>
1317.699

> <ROCS_Rank>
263                 

$$$$
ligprep_h3d.sdf:5411_246
  -OEChem-08212117123D

 71 75  0     0  0  0  0  0  0999 V2000
  -21.1199   -5.8789  -33.6625 C   0  0  0  0  0  0  0  0  0  0  0  0
  -19.9409   -3.8224  -33.1957 C   0  0  0  0  0  0  0  0  0  0  0  0
  -20.2051   -6.1739  -34.6733 C   0  0  0  0  0  0  0  0  0  0  0  0
  -19.0261   -4.1174  -34.2065 C   0  0  0  0  0  0  0  0  0  0  0  0
  -18.2615   -4.3676  -26.6090 C   0  0  0  0  0  0  0  0  0  0  0  0
  -18.8351   -6.0710  -25.0110 C   0  0  0  0  0  0  0  0  0  0  0  0
  -23.5393   -3.6514  -27.9102 C   0  0  0  0  0  0  0  0  0  0  0  0
  -20.8650   -4.2328  -28.5720 C   0  0  0  0  0  0  0  0  0  0  0  0
  -16.9298   -4.6540  -26.3554 C   0  0  0  0  0  0  0  0  0  0  0  0
  -17.4777   -6.2814  -24.8291 C   0  0  0  0  0  0  0  0  0  0  0  0
  -22.6469   -4.1124  -26.9497 C   0  0  0  0  0  0  0  0  0  0  0  0
  -20.9879   -4.7031  -32.9237 C   0  0  0  0  0  0  0  0  0  0  0  0
  -19.2261   -5.0941  -25.9198 C   0  0  0  0  0  0  0  0  0  0  0  0
  -21.3082   -4.3884  -27.2644 C   0  0  0  0  0  0  0  0  0  0  0  0
  -23.0860   -3.4837  -29.2171 C   0  0  0  0  0  0  0  0  0  0  0  0
  -21.7581   -3.7768  -29.5466 C   0  0  0  0  0  0  0  0  0  0  0  0
  -19.1582   -5.2932  -34.9453 C   0  0  0  0  0  0  0  0  0  0  0  0
  -22.9714   -3.0095  -24.7262 C   0  0  0  0  0  0  0  0  0  0  0  0
  -24.1604   -5.1856  -25.2127 C   0  0  0  0  0  0  0  0  0  0  0  0
  -21.6010   -5.1510  -25.1151 C   0  0  0  0  0  0  0  0  0  0  0  0
  -23.3004   -3.1687  -23.2452 C   0  0  0  0  0  0  0  0  0  0  0  0
  -24.4381   -5.3532  -23.7244 C   0  0  0  0  0  0  0  0  0  0  0  0
  -22.8941   -4.3537  -25.4805 C   0  0  0  0  0  0  0  0  0  0  0  0
  -27.3441   -3.6902  -22.5117 C   0  0  0  0  0  0  0  0  0  0  0  0
  -26.9348   -4.1800  -20.0912 C   0  0  0  0  0  0  0  0  0  0  0  0
  -24.0294   -1.6220  -30.3571 C   0  0  0  0  0  0  0  0  0  0  0  0
  -21.9711   -4.3854  -31.8357 C   0  0  0  0  0  0  0  0  0  0  0  0
  -24.9731   -4.0887  -21.6442 C   0  0  0  0  0  0  0  0  0  0  0  0
  -26.4591   -4.4506  -21.5224 C   0  0  0  0  0  0  0  0  0  0  0  0
  -16.5116   -5.5955  -25.4801 N   0  0  0  0  0  0  0  0  0  0  0  0
  -20.5839   -4.8430  -26.1393 N   0  0  0  0  0  0  0  0  0  0  0  0
  -24.5547   -3.9907  -23.0858 N   0  3  0  0  0  0  0  0  0  0  0  0
  -26.6248   -5.8476  -21.7786 O   0  0  0  0  0  0  0  0  0  0  0  0
  -23.9496   -3.0334  -30.1705 O   0  0  0  0  0  0  0  0  0  0  0  0
  -21.3178   -3.6179  -30.8277 O   0  0  0  0  0  0  0  0  0  0  0  0
  -18.2781   -5.5777  -35.9141 F   0  0  0  0  0  0  0  0  0  0  0  0
  -21.9328   -6.5708  -33.4584 H   0  0  0  0  0  0  0  0  0  0  0  0
  -19.8299   -2.9040  -32.6251 H   0  0  0  0  0  0  0  0  0  0  0  0
  -20.3074   -7.0895  -35.2480 H   0  0  0  0  0  0  0  0  0  0  0  0
  -18.2112   -3.4318  -34.4188 H   0  0  0  0  0  0  0  0  0  0  0  0
  -18.5331   -3.5990  -27.3248 H   0  0  0  0  0  0  0  0  0  0  0  0
  -19.5617   -6.6559  -24.4568 H   0  0  0  0  0  0  0  0  0  0  0  0
  -24.5676   -3.4205  -27.6510 H   0  0  0  0  0  0  0  0  0  0  0  0
  -19.8360   -4.4555  -28.8393 H   0  0  0  0  0  0  0  0  0  0  0  0
  -16.1389   -4.1157  -26.8673 H   0  0  0  0  0  0  0  0  0  0  0  0
  -17.1205   -7.0321  -24.1319 H   0  0  0  0  0  0  0  0  0  0  0  0
  -23.7400   -2.3721  -25.1850 H   0  0  0  0  0  0  0  0  0  0  0  0
  -22.0279   -2.4567  -24.8230 H   0  0  0  0  0  0  0  0  0  0  0  0
  -24.0791   -6.1751  -25.6804 H   0  0  0  0  0  0  0  0  0  0  0  0
  -25.0340   -4.7085  -25.6764 H   0  0  0  0  0  0  0  0  0  0  0  0
  -21.2263   -4.9071  -24.1150 H   0  0  0  0  0  0  0  0  0  0  0  0
  -21.7963   -6.2326  -25.1349 H   0  0  0  0  0  0  0  0  0  0  0  0
  -22.5008   -3.6711  -22.6913 H   0  0  0  0  0  0  0  0  0  0  0  0
  -23.4905   -2.1905  -22.7908 H   0  0  0  0  0  0  0  0  0  0  0  0
  -25.3909   -5.8702  -23.5696 H   0  0  0  0  0  0  0  0  0  0  0  0
  -23.6401   -5.8987  -23.2092 H   0  0  0  0  0  0  0  0  0  0  0  0
  -27.0306   -3.8620  -23.5464 H   0  0  0  0  0  0  0  0  0  0  0  0
  -27.3064   -2.6120  -22.3154 H   0  0  0  0  0  0  0  0  0  0  0  0
  -28.3973   -3.9735  -22.4104 H   0  0  0  0  0  0  0  0  0  0  0  0
  -26.3136   -4.7160  -19.3644 H   0  0  0  0  0  0  0  0  0  0  0  0
  -26.9040   -3.1120  -19.8515 H   0  0  0  0  0  0  0  0  0  0  0  0
  -27.9596   -4.5404  -19.9451 H   0  0  0  0  0  0  0  0  0  0  0  0
  -24.7530   -1.3982  -31.1448 H   0  0  0  0  0  0  0  0  0  0  0  0
  -23.0452   -1.2334  -30.6305 H   0  0  0  0  0  0  0  0  0  0  0  0
  -24.3556   -1.1578  -29.4233 H   0  0  0  0  0  0  0  0  0  0  0  0
  -22.8181   -3.8124  -32.2281 H   0  0  0  0  0  0  0  0  0  0  0  0
  -22.3650   -5.3046  -31.3886 H   0  0  0  0  0  0  0  0  0  0  0  0
  -24.3356   -4.8627  -21.2045 H   0  0  0  0  0  0  0  0  0  0  0  0
  -24.7431   -3.1221  -21.1851 H   0  0  0  0  0  0  0  0  0  0  0  0
  -25.3106   -3.4898  -23.5729 H   0  0  0  0  0  0  0  0  0  0  0  0
  -27.5644   -6.0388  -21.6429 H   0  0  0  0  0  0  0  0  0  0  0  0
  1  3  1  0  0  0  0
  1 12  2  0  0  0  0
  2  4  2  0  0  0  0
  2 12  1  0  0  0  0
  3 17  2  0  0  0  0
  4 17  1  0  0  0  0
  5  9  1  0  0  0  0
  5 13  2  0  0  0  0
  6 10  2  0  0  0  0
  6 13  1  0  0  0  0
  7 11  1  0  0  0  0
  7 15  2  0  0  0  0
  8 14  1  0  0  0  0
  8 16  2  0  0  0  0
  9 30  2  0  0  0  0
 10 30  1  0  0  0  0
 11 14  2  0  0  0  0
 11 23  1  0  0  0  0
 12 27  1  0  0  0  0
 13 31  1  0  0  0  0
 14 31  1  0  0  0  0
 15 16  1  0  0  0  0
 15 34  1  0  0  0  0
 16 35  1  0  0  0  0
 17 36  1  0  0  0  0
 18 21  1  0  0  0  0
 18 23  1  0  0  0  0
 19 22  1  0  0  0  0
 19 23  1  0  0  0  0
 20 23  1  0  0  0  0
 20 31  1  0  0  0  0
 21 32  1  0  0  0  0
 22 32  1  0  0  0  0
 24 29  1  0  0  0  0
 25 29  1  0  0  0  0
 26 34  1  0  0  0  0
 27 35  1  0  0  0  0
 28 29  1  0  0  0  0
 28 32  1  0  0  0  0
 29 33  1  0  0  0  0
  1 37  1  0  0  0  0
  2 38  1  0  0  0  0
  3 39  1  0  0  0  0
  4 40  1  0  0  0  0
  5 41  1  0  0  0  0
  6 42  1  0  0  0  0
  7 43  1  0  0  0  0
  8 44  1  0  0  0  0
  9 45  1  0  0  0  0
 10 46  1  0  0  0  0
 18 47  1  0  0  0  0
 18 48  1  0  0  0  0
 19 49  1  0  0  0  0
 19 50  1  0  0  0  0
 20 51  1  0  0  0  0
 20 52  1  0  0  0  0
 21 53  1  0  0  0  0
 21 54  1  0  0  0  0
 22 55  1  0  0  0  0
 22 56  1  0  0  0  0
 24 57  1  0  0  0  0
 24 58  1  0  0  0  0
 24 59  1  0  0  0  0
 25 60  1  0  0  0  0
 25 61  1  0  0  0  0
 25 62  1  0  0  0  0
 26 63  1  0  0  0  0
 26 64  1  0  0  0  0
 26 65  1  0  0  0  0
 27 66  1  0  0  0  0
 27 67  1  0  0  0  0
 28 68  1  0  0  0  0
 28 69  1  0  0  0  0
 32 70  1  0  0  0  0
 33 71  1  0  0  0  0
M  CHG  1  32   1
M  END
> <SMILES>
COc1cc2c(cc1OCc1ccc(cc1)F)N(CC12CCN(CC1)CC(C)(C)O)c1ccncc1

> <FORMATTED_ID>
H3D-015205

> <MOLFORMULA>
C29H34FN3O3

> <Exact Mass>
491.26

> <XLogP>
5.08

> <TPSA_NOPS>
58.1

> <s_m_source_file>
ligprep_h3d.sdf

> <i_m_source_file_index>
5411

> <i_lp_mmshare_version>
55123

> <i_f3d_flags>
0

> <s_epik_input>
W2NIXTFbY0hdYyhGKVtjSF1bY0hdYzFbQ0gyXU9jKGMoW2NIXTIpT1tDSDNdKVtjSF1jKE4oW0NIMl0zKWM0W2NIXVtjSF1uW2NIXVtjSF00KWMyQzM1W0NIMl1bQ0gyXU4oW0NIMl1bQ0gyXTUpW0NIMl1DKFtDSDNdKShbQ0gzXSlbT0hd

> <s_epik_cmdline>
J2VwaWtfcHl0aG9uJywgJy1waHQnLCAnMC41JywgJy1waCcsICc3LjUnLCAnLXRuJywgJzgnLCAnLW1hJywgJzUwMCcsICctaW1hZScsICc8aW5maWxlLm1hZT4nLCAnLW9tYWUnLCAnPG91dGZpbGUubWFlPic=

> <r_lp_tautomer_probability>
1

> <r_epik_Ionization_Penalty>
0.147586

> <r_epik_Ionization_Penalty_Charging>
0.0243449

> <r_epik_Ionization_Penalty_Neutral>
0.123241

> <r_epik_State_Penalty>
-0

> <r_epik_Charging_Adjusted_Penalty>
0.0243449

> <i_epik_Tot_Q>
1

> <i_epik_Tot_abs_Q>
1

> <s_lp_Force_Field>
S-OPLS

> <r_lp_Energy>
68.8235

> <b_lp_Chiralities_Consistent>
1

> <s_lp_Variant>
ligprep_h3d.sdf:5411-1

> <ROCS_ShapeQuery>
_7L13

> <ROCS_TanimotoCombo>
0.761 

> <ROCS_ShapeTanimoto>
0.659 

> <ROCS_ColorTanimoto>
0.101 

> <ROCS_RefTversky>
0.790 

> <ROCS_RefColorTversky>
0.220 

> <ROCS_RefTverskyCombo>
1.010 

> <ROCS_FitTversky>
0.800 

> <ROCS_FitColorTversky>
0.158 

> <ROCS_FitTverskyCombo>
0.958 

> <ROCS_ColorScore>
-2.026

> <ROCS_Overlap>
1310.566

> <ROCS_Rank>
264                 

$$$$
ligprep_h3d.sdf:1274_699
  -OEChem-08212117123D

 66 70  0     1  0  0  0  0  0999 V2000
  -20.2946   -4.0558  -32.1613 C   0  0  0  0  0  0  0  0  0  0  0  0
  -21.1260   -6.3136  -31.9409 C   0  0  0  0  0  0  0  0  0  0  0  0
  -19.8450   -4.3471  -33.4491 C   0  0  0  0  0  0  0  0  0  0  0  0
  -20.6764   -6.6048  -33.2288 C   0  0  0  0  0  0  0  0  0  0  0  0
  -16.7581   -5.4544  -26.6858 C   0  0  0  0  0  0  0  0  0  0  0  0
  -23.1501   -3.9489  -28.5972 C   0  0  0  0  0  0  0  0  0  0  0  0
  -20.7212   -4.5186  -25.2736 C   0  0  0  0  0  0  0  0  0  0  0  0
  -17.3782   -6.7114  -26.5544 C   0  0  0  0  0  0  0  0  0  0  0  0
  -21.0427   -4.6340  -27.6670 C   0  0  0  0  0  0  0  0  0  0  0  0
  -20.9351   -5.0391  -31.4071 C   0  0  0  0  0  0  0  0  0  0  0  0
  -21.4035   -4.7356  -30.0651 C   0  0  0  0  0  0  0  0  0  0  0  0
  -20.0359   -5.6215  -33.9829 C   0  0  0  0  0  0  0  0  0  0  0  0
  -22.6902   -4.2440  -29.8830 C   0  0  0  0  0  0  0  0  0  0  0  0
  -20.5799   -4.9309  -28.9602 C   0  0  0  0  0  0  0  0  0  0  0  0
  -22.3480   -4.1347  -27.4746 C   0  0  0  0  0  0  0  0  0  0  0  0
  -20.2348   -4.8211  -26.5373 C   0  0  0  0  0  0  0  0  0  0  0  0
  -22.0109   -4.0352  -25.1852 C   0  0  0  0  0  0  0  0  0  0  0  0
  -17.7984   -4.5577  -26.6956 C   0  0  0  0  0  0  0  0  0  0  0  0
  -19.6039   -7.8469  -36.6063 C   0  0  0  0  0  0  0  0  0  0  0  0
  -22.5819   -3.7002  -23.8919 C   0  0  0  0  0  0  0  0  0  0  0  0
  -20.6376   -5.7875  -36.4097 C   0  0  0  0  0  0  0  0  0  0  0  0
  -19.5549   -5.9330  -35.3598 C   0  0  2  0  0  0  0  0  0  0  0  0
  -23.6159   -4.0143  -31.0353 C   0  0  0  0  0  0  0  0  0  0  0  0
  -19.2019   -5.4651  -29.2347 C   0  0  0  0  0  0  0  0  0  0  0  0
  -17.7960   -3.0859  -26.8082 C   0  0  0  0  0  0  0  0  0  0  0  0
  -25.7427   -4.6380  -20.5411 C   0  0  0  0  0  0  0  0  0  0  0  0
  -24.6855   -3.5291  -22.5368 C   0  0  0  0  0  0  0  0  0  0  0  0
  -25.3982   -4.7755  -22.0180 C   0  0  2  0  0  0  0  0  0  0  0  0
  -18.7093   -6.6250  -26.4855 N   0  0  0  0  0  0  0  0  0  0  0  0
  -22.8227   -3.8402  -26.2495 N   0  0  0  0  0  0  0  0  0  0  0  0
  -18.9342   -5.3030  -26.5738 N   0  0  0  0  0  0  0  0  0  0  0  0
  -20.4233   -6.9338  -37.2304 N   0  0  0  0  0  0  0  0  0  0  0  0
  -23.9678   -3.8436  -23.7512 N   0  0  0  0  0  0  0  0  0  0  0  0
  -19.3047   -8.9612  -37.0115 O   0  0  0  0  0  0  0  0  0  0  0  0
  -21.8576   -3.2859  -22.9685 O   0  0  0  0  0  0  0  0  0  0  0  0
  -19.1635   -7.3210  -35.4179 O   0  0  0  0  0  0  0  0  0  0  0  0
  -26.6076   -4.9487  -22.7541 O   0  0  0  0  0  0  0  0  0  0  0  0
  -20.1378   -3.0578  -31.7589 H   0  0  0  0  0  0  0  0  0  0  0  0
  -21.6241   -7.0905  -31.3658 H   0  0  0  0  0  0  0  0  0  0  0  0
  -19.3460   -3.5752  -34.0290 H   0  0  0  0  0  0  0  0  0  0  0  0
  -20.8298   -7.6003  -33.6371 H   0  0  0  0  0  0  0  0  0  0  0  0
  -15.7038   -5.2319  -26.7621 H   0  0  0  0  0  0  0  0  0  0  0  0
  -24.1613   -3.5641  -28.4693 H   0  0  0  0  0  0  0  0  0  0  0  0
  -20.1159   -4.6542  -24.3815 H   0  0  0  0  0  0  0  0  0  0  0  0
  -16.9155   -7.6867  -26.5058 H   0  0  0  0  0  0  0  0  0  0  0  0
  -21.6544   -5.8445  -36.0070 H   0  0  0  0  0  0  0  0  0  0  0  0
  -20.5366   -4.8728  -37.0002 H   0  0  0  0  0  0  0  0  0  0  0  0
  -18.6753   -5.3232  -35.5849 H   0  0  0  0  0  0  0  0  0  0  0  0
  -23.4948   -2.9958  -31.4197 H   0  0  0  0  0  0  0  0  0  0  0  0
  -23.4169   -4.7227  -31.8478 H   0  0  0  0  0  0  0  0  0  0  0  0
  -24.6609   -4.1550  -30.7353 H   0  0  0  0  0  0  0  0  0  0  0  0
  -19.2164   -6.5575  -29.2083 H   0  0  0  0  0  0  0  0  0  0  0  0
  -18.8478   -5.1358  -30.2154 H   0  0  0  0  0  0  0  0  0  0  0  0
  -18.4898   -5.0988  -28.4898 H   0  0  0  0  0  0  0  0  0  0  0  0
  -17.8531   -2.7681  -27.8622 H   0  0  0  0  0  0  0  0  0  0  0  0
  -18.6460   -2.6286  -26.2737 H   0  0  0  0  0  0  0  0  0  0  0  0
  -16.8860   -2.6391  -26.3723 H   0  0  0  0  0  0  0  0  0  0  0  0
  -26.3629   -3.7553  -20.3576 H   0  0  0  0  0  0  0  0  0  0  0  0
  -26.2750   -5.5244  -20.1784 H   0  0  0  0  0  0  0  0  0  0  0  0
  -24.8303   -4.5519  -19.9410 H   0  0  0  0  0  0  0  0  0  0  0  0
  -25.4045   -2.7315  -22.7528 H   0  0  0  0  0  0  0  0  0  0  0  0
  -23.9706   -3.1558  -21.7963 H   0  0  0  0  0  0  0  0  0  0  0  0
  -24.7778   -5.6658  -22.1731 H   0  0  0  0  0  0  0  0  0  0  0  0
  -20.8230   -7.0600  -38.1548 H   0  0  0  0  0  0  0  0  0  0  0  0
  -24.5206   -4.1249  -24.5544 H   0  0  0  0  0  0  0  0  0  0  0  0
  -27.0243   -5.7548  -22.4129 H   0  0  0  0  0  0  0  0  0  0  0  0
  1  3  1  0  0  0  0
  1 10  2  0  0  0  0
  2  4  2  0  0  0  0
  2 10  1  0  0  0  0
  3 12  2  0  0  0  0
  4 12  1  0  0  0  0
  5  8  1  0  0  0  0
  5 18  2  0  0  0  0
  6 13  2  0  0  0  0
  6 15  1  0  0  0  0
  7 16  1  0  0  0  0
  7 17  2  0  0  0  0
  8 29  2  0  0  0  0
  9 14  1  0  0  0  0
  9 15  1  0  0  0  0
  9 16  2  0  0  0  0
 10 11  1  0  0  0  0
 11 13  1  0  0  0  0
 11 14  2  0  0  0  0
 12 22  1  0  0  0  0
 13 23  1  0  0  0  0
 14 24  1  0  0  0  0
 15 30  2  0  0  0  0
 16 31  1  0  0  0  0
 17 20  1  0  0  0  0
 17 30  1  0  0  0  0
 18 25  1  0  0  0  0
 18 31  1  0  0  0  0
 19 32  1  0  0  0  0
 19 34  2  0  0  0  0
 19 36  1  0  0  0  0
 20 33  1  0  0  0  0
 20 35  2  0  0  0  0
 21 22  1  0  0  0  0
 21 32  1  0  0  0  0
 22 36  1  0  0  0  0
 26 28  1  0  0  0  0
 27 28  1  0  0  0  0
 27 33  1  0  0  0  0
 28 37  1  0  0  0  0
 29 31  1  0  0  0  0
  1 38  1  0  0  0  0
  2 39  1  0  0  0  0
  3 40  1  0  0  0  0
  4 41  1  0  0  0  0
  5 42  1  0  0  0  0
  6 43  1  0  0  0  0
  7 44  1  0  0  0  0
  8 45  1  0  0  0  0
 21 46  1  0  0  0  0
 21 47  1  0  0  0  0
 22 48  1  0  0  0  0
 23 49  1  0  0  0  0
 23 50  1  0  0  0  0
 23 51  1  0  0  0  0
 24 52  1  0  0  0  0
 24 53  1  0  0  0  0
 24 54  1  0  0  0  0
 25 55  1  0  0  0  0
 25 56  1  0  0  0  0
 25 57  1  0  0  0  0
 26 58  1  0  0  0  0
 26 59  1  0  0  0  0
 26 60  1  0  0  0  0
 27 61  1  0  0  0  0
 27 62  1  0  0  0  0
 28 63  1  0  0  0  0
 32 64  1  0  0  0  0
 33 65  1  0  0  0  0
 37 66  1  0  0  0  0
M  END
> <SMILES>
C[C@@H](O)CNC(=O)c1cc(c2c(c(c(cc2n1)C)-c1ccc(cc1)C1CNC(=O)O1)C)-n1nccc1C

> <FORMATTED_ID>
H3D-008580

> <MOLFORMULA>
C28H29N5O4

> <Exact Mass>
499.22

> <XLogP>
3.28

> <TPSA_NOPS>
118.4

> <s_m_source_file>
ligprep_h3d.sdf

> <i_m_source_file_index>
1274

> <i_lp_mmshare_version>
55123

> <i_f3d_flags>
0

> <s_epik_input>
W0NIM11jMVtjSF1bY0hdbm4xLWMyW2NIXWMoQyg9TylbTkhdW0NIMl1bQ0BASF0oW0NIM10pW09IXSluYyhjMjMpW2NIXWMoW0NIM10pYyhjM1tDSDNdKS1jNFtjSF1bY0hdYyhbY0hdW2NIXTQpW0NAQEhdNVtDSDJdW05IXUMoPU8pTzU=

> <s_epik_cmdline>
J2VwaWtfcHl0aG9uJywgJy1waHQnLCAnMC41JywgJy1waCcsICc3LjUnLCAnLXRuJywgJzgnLCAnLW1hJywgJzUwMCcsICctaW1hZScsICc8aW5maWxlLm1hZT4nLCAnLW9tYWUnLCAnPG91dGZpbGUubWFlPic=

> <r_lp_tautomer_probability>
1

> <r_epik_Ionization_Penalty>
1.9395e-05

> <r_epik_Ionization_Penalty_Charging>
0

> <r_epik_Ionization_Penalty_Neutral>
1.9395e-05

> <r_epik_State_Penalty>
-0

> <r_epik_Charging_Adjusted_Penalty>
0

> <i_epik_Tot_Q>
0

> <i_epik_Tot_abs_Q>
0

> <s_epik_Chemistry_Notes>
This compound has an ester and may undergo hydrolysis at high or low pH.

> <s_lp_Force_Field>
S-OPLS

> <r_lp_Energy>
41.5758

> <b_lp_Chiralities_Consistent>
1

> <s_lp_Variant>
ligprep_h3d.sdf:1274-1

> <ROCS_ShapeQuery>
_7L13

> <ROCS_TanimotoCombo>
0.771 

> <ROCS_ShapeTanimoto>
0.633 

> <ROCS_ColorTanimoto>
0.138 

> <ROCS_RefTversky>
0.790 

> <ROCS_RefColorTversky>
0.291 

> <ROCS_RefTverskyCombo>
1.081 

> <ROCS_FitTversky>
0.761 

> <ROCS_FitColorTversky>
0.209 

> <ROCS_FitTverskyCombo>
0.970 

> <ROCS_ColorScore>
-2.677

> <ROCS_Overlap>
1314.037

> <ROCS_Rank>
265                 

$$$$
ligprep_h3d.sdf:2342_1005
  -OEChem-08212117123D

 58 62  0     0  0  0  0  0  0999 V2000
  -19.2611   -2.9729  -23.3709 C   0  0  0  0  0  0  0  0  0  0  0  0
  -25.7632   -4.4837  -23.2007 C   0  0  0  0  0  0  0  0  0  0  0  0
  -25.7662   -5.1345  -24.4301 C   0  0  0  0  0  0  0  0  0  0  0  0
  -20.7298   -3.7565  -32.9912 C   0  0  0  0  0  0  0  0  0  0  0  0
  -22.0655   -5.5861  -32.1511 C   0  0  0  0  0  0  0  0  0  0  0  0
  -24.5960   -3.8903  -22.7172 C   0  0  0  0  0  0  0  0  0  0  0  0
  -24.6112   -5.2008  -25.2192 C   0  0  0  0  0  0  0  0  0  0  0  0
  -20.1385   -4.6141  -33.9188 C   0  0  0  0  0  0  0  0  0  0  0  0
  -21.4742   -6.4437  -33.0788 C   0  0  0  0  0  0  0  0  0  0  0  0
  -21.6933   -4.2426  -32.1073 C   0  0  0  0  0  0  0  0  0  0  0  0
  -23.4263   -3.9528  -23.4962 C   0  0  0  0  0  0  0  0  0  0  0  0
  -23.4441   -4.5829  -24.7419 C   0  0  0  0  0  0  0  0  0  0  0  0
  -20.5107   -5.9577  -33.9626 C   0  0  0  0  0  0  0  0  0  0  0  0
  -21.4186   -3.7997  -24.2233 C   0  0  0  0  0  0  0  0  0  0  0  0
  -20.2383   -4.5960  -26.6215 C   0  0  0  0  0  0  0  0  0  0  0  0
  -20.0148   -3.5883  -24.4135 C   0  0  0  0  0  0  0  0  0  0  0  0
  -19.4340   -3.9828  -25.5693 C   0  0  0  0  0  0  0  0  0  0  0  0
  -21.5620   -4.8086  -26.4690 C   0  0  0  0  0  0  0  0  0  0  0  0
  -23.4563   -4.4685  -27.9586 C   0  0  0  0  0  0  0  0  0  0  0  0
  -21.5655   -5.7912  -28.6960 C   0  0  0  0  0  0  0  0  0  0  0  0
  -22.9825   -3.2560  -28.7568 C   0  0  0  0  0  0  0  0  0  0  0  0
  -21.0149   -4.6326  -29.5243 C   0  0  0  0  0  0  0  0  0  0  0  0
  -18.3479   -7.6822  -34.2824 C   0  0  0  0  0  0  0  0  0  0  0  0
  -22.3294   -3.3199  -31.1081 C   0  0  0  0  0  0  0  0  0  0  0  0
  -17.9742   -3.8366  -25.9080 C   0  0  0  0  0  0  0  0  0  0  0  0
  -18.6480   -2.4725  -22.5226 N   0  0  0  0  0  0  0  0  0  0  0  0
  -22.1810   -3.4767  -23.2004 N   0  0  0  0  0  0  0  0  0  0  0  0
  -22.1492   -4.4332  -25.2388 N   0  0  0  0  0  0  0  0  0  0  0  0
  -22.3750   -5.3728  -27.5432 N   0  0  0  0  0  0  0  0  0  0  0  0
  -22.1236   -3.7209  -29.8613 N   0  0  0  0  0  0  0  0  0  0  0  0
  -20.6926   -8.1331  -35.3658 O   0  0  0  0  0  0  0  0  0  0  0  0
  -19.2784   -6.2437  -36.2468 O   0  0  0  0  0  0  0  0  0  0  0  0
  -17.7227   -4.3160  -27.1400 F   0  0  0  0  0  0  0  0  0  0  0  0
  -17.6057   -2.5427  -25.8774 F   0  0  0  0  0  0  0  0  0  0  0  0
  -17.2093   -4.5117  -25.0303 F   0  0  0  0  0  0  0  0  0  0  0  0
  -19.7723   -7.0307  -35.1251 S   0  0  0  0  0  0  0  0  0  0  0  0
  -26.6721   -4.4462  -22.6066 H   0  0  0  0  0  0  0  0  0  0  0  0
  -26.6802   -5.6045  -24.7848 H   0  0  0  0  0  0  0  0  0  0  0  0
  -20.4333   -2.7114  -32.9641 H   0  0  0  0  0  0  0  0  0  0  0  0
  -22.8150   -5.9737  -31.4661 H   0  0  0  0  0  0  0  0  0  0  0  0
  -24.5927   -3.3981  -21.7494 H   0  0  0  0  0  0  0  0  0  0  0  0
  -24.6502   -5.7357  -26.1593 H   0  0  0  0  0  0  0  0  0  0  0  0
  -19.3885   -4.2253  -34.6025 H   0  0  0  0  0  0  0  0  0  0  0  0
  -21.7713   -7.4888  -33.1040 H   0  0  0  0  0  0  0  0  0  0  0  0
  -19.7399   -4.8582  -27.5510 H   0  0  0  0  0  0  0  0  0  0  0  0
  -24.0371   -4.1082  -27.0708 H   0  0  0  0  0  0  0  0  0  0  0  0
  -24.1997   -5.0555  -28.5567 H   0  0  0  0  0  0  0  0  0  0  0  0
  -22.1872   -6.4642  -29.3407 H   0  0  0  0  0  0  0  0  0  0  0  0
  -20.7089   -6.4355  -28.3690 H   0  0  0  0  0  0  0  0  0  0  0  0
  -23.8571   -2.7491  -29.1575 H   0  0  0  0  0  0  0  0  0  0  0  0
  -22.4494   -2.5653  -28.1064 H   0  0  0  0  0  0  0  0  0  0  0  0
  -20.2336   -4.1151  -28.9711 H   0  0  0  0  0  0  0  0  0  0  0  0
  -20.5828   -5.0401  -30.4355 H   0  0  0  0  0  0  0  0  0  0  0  0
  -17.8326   -8.3680  -34.9567 H   0  0  0  0  0  0  0  0  0  0  0  0
  -17.6965   -6.8494  -34.0129 H   0  0  0  0  0  0  0  0  0  0  0  0
  -18.6871   -8.2075  -33.3884 H   0  0  0  0  0  0  0  0  0  0  0  0
  -21.9262   -2.3062  -31.2073 H   0  0  0  0  0  0  0  0  0  0  0  0
  -23.4113   -3.2564  -31.2651 H   0  0  0  0  0  0  0  0  0  0  0  0
  1 16  1  0  0  0  0
  1 26  3  0  0  0  0
  2  3  2  0  0  0  0
  2  6  1  0  0  0  0
  3  7  1  0  0  0  0
  4  8  1  0  0  0  0
  4 10  2  0  0  0  0
  5  9  2  0  0  0  0
  5 10  1  0  0  0  0
  6 11  2  0  0  0  0
  7 12  2  0  0  0  0
  8 13  2  0  0  0  0
  9 13  1  0  0  0  0
 10 24  1  0  0  0  0
 11 12  1  0  0  0  0
 11 27  1  0  0  0  0
 12 28  1  0  0  0  0
 13 36  1  0  0  0  0
 14 16  1  0  0  0  0
 14 27  2  0  0  0  0
 14 28  1  0  0  0  0
 15 17  1  0  0  0  0
 15 18  2  0  0  0  0
 16 17  2  0  0  0  0
 17 25  1  0  0  0  0
 18 28  1  0  0  0  0
 18 29  1  0  0  0  0
 19 21  1  0  0  0  0
 19 29  1  0  0  0  0
 20 22  1  0  0  0  0
 20 29  1  0  0  0  0
 21 30  1  0  0  0  0
 22 30  1  0  0  0  0
 23 36  1  0  0  0  0
 24 30  1  0  0  0  0
 25 33  1  0  0  0  0
 25 34  1  0  0  0  0
 25 35  1  0  0  0  0
 31 36  2  0  0  0  0
 32 36  2  0  0  0  0
  2 37  1  0  0  0  0
  3 38  1  0  0  0  0
  4 39  1  0  0  0  0
  5 40  1  0  0  0  0
  6 41  1  0  0  0  0
  7 42  1  0  0  0  0
  8 43  1  0  0  0  0
  9 44  1  0  0  0  0
 15 45  1  0  0  0  0
 19 46  1  0  0  0  0
 19 47  1  0  0  0  0
 20 48  1  0  0  0  0
 20 49  1  0  0  0  0
 21 50  1  0  0  0  0
 21 51  1  0  0  0  0
 22 52  1  0  0  0  0
 22 53  1  0  0  0  0
 23 54  1  0  0  0  0
 23 55  1  0  0  0  0
 23 56  1  0  0  0  0
 24 57  1  0  0  0  0
 24 58  1  0  0  0  0
M  END
> <SMILES>
CS(=O)(=O)c1ccc(cc1)CN1CCN(CC1)c1cc(c(c2nc3ccccc3n12)C#N)C(F)(F)F

> <FORMATTED_ID>
H3D-005412

> <MOLFORMULA>
C25H22F3N5O2S

> <Exact Mass>
513.14

> <XLogP>
4.9

> <TPSA_NOPS>
90.1

> <s_m_source_file>
ligprep_h3d.sdf

> <i_m_source_file_index>
2342

> <i_lp_mmshare_version>
55123

> <i_f3d_flags>
0

> <s_epik_input>
W0NIM11TKD1PKSg9TyljMVtjSF1bY0hdYyhbY0hdW2NIXTEpW0NIMl1OMltDSDJdW0NIMl1OKFtDSDJdW0NIMl0yKWMoW2NIXWMoQyhGKShGKUYpYzNDI04pbihjMzQpYzVjKG40KVtjSF1bY0hdW2NIXVtjSF01

> <s_epik_cmdline>
J2VwaWtfcHl0aG9uJywgJy1waHQnLCAnMC41JywgJy1waCcsICc3LjUnLCAnLXRuJywgJzgnLCAnLW1hJywgJzUwMCcsICctaW1hZScsICc8aW5maWxlLm1hZT4nLCAnLW9tYWUnLCAnPG91dGZpbGUubWFlPic=

> <r_epik_Ionization_Penalty>
0.392588

> <r_epik_Ionization_Penalty_Charging>
0

> <r_epik_Ionization_Penalty_Neutral>
0.392588

> <r_epik_State_Penalty>
0.391001

> <r_epik_Charging_Adjusted_Penalty>
0.391001

> <i_epik_Tot_Q>
0

> <i_epik_Tot_abs_Q>
0

> <s_lp_Force_Field>
S-OPLS

> <r_lp_Energy>
63.3167

> <b_lp_Chiralities_Consistent>
1

> <s_lp_Variant>
ligprep_h3d.sdf:2342-1

> <ROCS_ShapeQuery>
_7L13

> <ROCS_TanimotoCombo>
0.774 

> <ROCS_ShapeTanimoto>
0.652 

> <ROCS_ColorTanimoto>
0.123 

> <ROCS_RefTversky>
0.790 

> <ROCS_RefColorTversky>
0.230 

> <ROCS_RefTverskyCombo>
1.020 

> <ROCS_FitTversky>
0.788 

> <ROCS_FitColorTversky>
0.208 

> <ROCS_FitTverskyCombo>
0.997 

> <ROCS_ColorScore>
-2.082

> <ROCS_Overlap>
1311.238

> <ROCS_Rank>
266                 

$$$$
ligprep_h3d.sdf:4413_706
  -OEChem-08212117123D

 60 64  0     1  0  0  0  0  0999 V2000
  -20.0051   -5.2651  -36.0818 C   0  0  0  0  0  0  0  0  0  0  0  0
  -22.8992   -2.7000  -32.2049 C   0  0  0  0  0  0  0  0  0  0  0  0
  -19.4073   -5.9746  -37.1233 C   0  0  0  0  0  0  0  0  0  0  0  0
  -23.1188   -2.6722  -30.8275 C   0  0  0  0  0  0  0  0  0  0  0  0
  -20.7606   -4.8607  -25.3098 C   0  0  0  0  0  0  0  0  0  0  0  0
  -20.3285   -7.3261  -34.8633 C   0  0  0  0  0  0  0  0  0  0  0  0
  -22.6819   -3.7902  -26.2829 C   0  0  0  0  0  0  0  0  0  0  0  0
  -20.2897   -5.0648  -26.5968 C   0  0  0  0  0  0  0  0  0  0  0  0
  -20.4656   -5.9409  -34.9517 C   0  0  0  0  0  0  0  0  0  0  0  0
  -21.9803   -4.2106  -25.1585 C   0  0  0  0  0  0  0  0  0  0  0  0
  -19.7307   -8.0357  -35.9049 C   0  0  0  0  0  0  0  0  0  0  0  0
  -22.1535   -3.7712  -32.7135 C   0  0  0  0  0  0  0  0  0  0  0  0
  -19.2702   -7.3599  -37.0349 C   0  0  0  0  0  0  0  0  0  0  0  0
  -21.6901   -4.7214  -31.8141 C   0  0  0  0  0  0  0  0  0  0  0  0
  -22.5949   -3.6931  -30.0405 C   0  0  0  0  0  0  0  0  0  0  0  0
  -22.1249   -4.0420  -27.5264 C   0  0  0  0  0  0  0  0  0  0  0  0
  -21.0836   -5.2065  -33.8742 C   0  0  0  0  0  0  0  0  0  0  0  0
  -22.5248   -3.9698  -23.8156 C   0  0  0  0  0  0  0  0  0  0  0  0
  -24.5927   -5.3359  -24.4012 C   0  0  0  0  0  0  0  0  0  0  0  0
  -24.2840   -4.3959  -22.1351 C   0  0  0  0  0  0  0  0  0  0  0  0
  -26.0651   -4.9074  -24.3456 C   0  0  1  0  0  0  0  0  0  0  0  0
  -25.7567   -3.9743  -22.1321 C   0  0  2  0  0  0  0  0  0  0  0  0
  -26.9302   -5.8640  -25.1641 C   0  0  0  0  0  0  0  0  0  0  0  0
  -26.3122   -3.9815  -20.7093 C   0  0  0  0  0  0  0  0  0  0  0  0
  -19.5846   -9.5169  -35.8073 C   0  0  0  0  0  0  0  0  0  0  0  0
  -20.9427   -4.6708  -27.7130 N   0  0  0  0  0  0  0  0  0  0  0  0
  -21.7671   -4.0878  -33.9931 N   0  0  0  0  0  0  0  0  0  0  0  0
  -21.8687   -4.7483  -30.4831 N   0  0  0  0  0  0  0  0  0  0  0  0
  -21.0093   -5.6298  -32.5743 N   0  0  0  0  0  0  0  0  0  0  0  0
  -26.5543   -4.8826  -22.9631 N   0  0  0  0  0  0  0  0  0  0  0  0
  -23.7669   -4.5261  -23.4968 N   0  0  0  0  0  0  0  0  0  0  0  0
  -22.8512   -3.6073  -28.6628 N   0  0  0  0  0  0  0  0  0  0  0  0
  -21.8293   -3.2908  -23.0615 O   0  0  0  0  0  0  0  0  0  0  0  0
  -18.6965   -8.0334  -38.0418 F   0  0  0  0  0  0  0  0  0  0  0  0
  -20.0791  -10.0403  -34.6466 F   0  0  0  0  0  0  0  0  0  0  0  0
  -20.2240  -10.1961  -36.8050 F   0  0  0  0  0  0  0  0  0  0  0  0
  -18.2823   -9.9209  -35.8655 F   0  0  0  0  0  0  0  0  0  0  0  0
  -20.1048   -4.1854  -36.1655 H   0  0  0  0  0  0  0  0  0  0  0  0
  -23.2914   -1.9219  -32.8501 H   0  0  0  0  0  0  0  0  0  0  0  0
  -19.0477   -5.4495  -38.0034 H   0  0  0  0  0  0  0  0  0  0  0  0
  -23.6924   -1.8593  -30.3918 H   0  0  0  0  0  0  0  0  0  0  0  0
  -20.1881   -5.2018  -24.4538 H   0  0  0  0  0  0  0  0  0  0  0  0
  -20.6856   -7.8595  -33.9845 H   0  0  0  0  0  0  0  0  0  0  0  0
  -23.6359   -3.2803  -26.1851 H   0  0  0  0  0  0  0  0  0  0  0  0
  -19.3436   -5.5673  -26.7689 H   0  0  0  0  0  0  0  0  0  0  0  0
  -24.4766   -6.3793  -24.0810 H   0  0  0  0  0  0  0  0  0  0  0  0
  -24.2293   -5.2718  -25.4308 H   0  0  0  0  0  0  0  0  0  0  0  0
  -23.6838   -3.6744  -21.5697 H   0  0  0  0  0  0  0  0  0  0  0  0
  -24.1538   -5.3731  -21.6523 H   0  0  0  0  0  0  0  0  0  0  0  0
  -26.1640   -3.9047  -24.7821 H   0  0  0  0  0  0  0  0  0  0  0  0
  -25.8424   -2.9521  -22.5243 H   0  0  0  0  0  0  0  0  0  0  0  0
  -26.8544   -6.8705  -24.7563 H   0  0  0  0  0  0  0  0  0  0  0  0
  -26.5930   -5.8720  -26.1992 H   0  0  0  0  0  0  0  0  0  0  0  0
  -27.9697   -5.5421  -25.1297 H   0  0  0  0  0  0  0  0  0  0  0  0
  -26.2415   -4.9840  -20.2907 H   0  0  0  0  0  0  0  0  0  0  0  0
  -27.3559   -3.6718  -20.7192 H   0  0  0  0  0  0  0  0  0  0  0  0
  -25.7418   -3.2939  -20.0871 H   0  0  0  0  0  0  0  0  0  0  0  0
  -20.5402   -6.4594  -32.2351 H   0  0  0  0  0  0  0  0  0  0  0  0
  -27.5319   -4.5927  -22.9492 H   0  0  0  0  0  0  0  0  0  0  0  0
  -23.7229   -3.1471  -28.4288 H   0  0  0  0  0  0  0  0  0  0  0  0
  1  3  1  0  0  0  0
  1  9  2  0  0  0  0
  2  4  1  0  0  0  0
  2 12  2  0  0  0  0
  3 13  2  0  0  0  0
  4 15  2  0  0  0  0
  5  8  1  0  0  0  0
  5 10  2  0  0  0  0
  6  9  1  0  0  0  0
  6 11  2  0  0  0  0
  7 10  1  0  0  0  0
  7 16  2  0  0  0  0
  8 26  2  0  0  0  0
  9 17  1  0  0  0  0
 10 18  1  0  0  0  0
 11 13  1  0  0  0  0
 11 25  1  0  0  0  0
 12 14  1  0  0  0  0
 12 27  1  0  0  0  0
 13 34  1  0  0  0  0
 14 28  2  0  0  0  0
 14 29  1  0  0  0  0
 15 28  1  0  0  0  0
 15 32  1  0  0  0  0
 16 26  1  0  0  0  0
 16 32  1  0  0  0  0
 17 27  2  0  0  0  0
 17 29  1  0  0  0  0
 18 31  1  0  0  0  0
 18 33  2  0  0  0  0
 19 21  1  0  0  0  0
 19 31  1  0  0  0  0
 20 22  1  0  0  0  0
 20 31  1  0  0  0  0
 21 23  1  0  0  0  0
 21 30  1  0  0  0  0
 22 24  1  0  0  0  0
 22 30  1  0  0  0  0
 25 35  1  0  0  0  0
 25 36  1  0  0  0  0
 25 37  1  0  0  0  0
  1 38  1  0  0  0  0
  2 39  1  0  0  0  0
  3 40  1  0  0  0  0
  4 41  1  0  0  0  0
  5 42  1  0  0  0  0
  6 43  1  0  0  0  0
  7 44  1  0  0  0  0
  8 45  1  0  0  0  0
 19 46  1  0  0  0  0
 19 47  1  0  0  0  0
 20 48  1  0  0  0  0
 20 49  1  0  0  0  0
 21 50  1  0  0  0  0
 22 51  1  0  0  0  0
 23 52  1  0  0  0  0
 23 53  1  0  0  0  0
 23 54  1  0  0  0  0
 24 55  1  0  0  0  0
 24 56  1  0  0  0  0
 24 57  1  0  0  0  0
 29 58  1  0  0  0  0
 30 59  1  0  0  0  0
 32 60  1  0  0  0  0
M  END
> <SMILES>
C[C@@H]1CN(C[C@H](C)N1)C(=O)c1ccnc(c1)Nc1ccc2nc([nH]c2n1)-c1ccc(c(c1)C(F)(F)F)F

> <FORMATTED_ID>
H3D-003997

> <MOLFORMULA>
C25H23F4N7O

> <Exact Mass>
513.19

> <XLogP>
5.06

> <TPSA_NOPS>
98.8

> <s_m_source_file>
ligprep_h3d.sdf

> <i_m_source_file_index>
4413

> <i_lp_mmshare_version>
55123

> <i_f3d_flags>
0

> <s_epik_input>
W0NIM11bQ0BASF0xW0NIMl1OKFtDSDJdW0NASF0oW0NIM10pW05IXTEpQyg9TyljMltjSF1bY0hdbmMoW2NIXTIpW05IXWMoW2NIXVtjSF0zKVtuSF1jKGMzNCluYyhuNCktYzVbY0hdW2NIXWMoRiljKFtjSF01KUMoRikoRilG

> <s_epik_cmdline>
J2VwaWtfcHl0aG9uJywgJy1waHQnLCAnMC41JywgJy1waCcsICc3LjUnLCAnLXRuJywgJzgnLCAnLW1hJywgJzUwMCcsICctaW1hZScsICc8aW5maWxlLm1hZT4nLCAnLW9tYWUnLCAnPG91dGZpbGUubWFlPic=

> <r_lp_tautomer_probability>
1

> <r_epik_Ionization_Penalty>
0.590145

> <r_epik_Ionization_Penalty_Charging>
8.39254e-05

> <r_epik_Ionization_Penalty_Neutral>
0.590061

> <r_epik_State_Penalty>
0.625357

> <r_epik_Charging_Adjusted_Penalty>
0.625441

> <i_epik_Tot_Q>
0

> <i_epik_Tot_abs_Q>
0

> <s_lp_Force_Field>
S-OPLS

> <r_lp_Energy>
47.3747

> <b_lp_Chiralities_Consistent>
1

> <s_lp_Variant>
ligprep_h3d.sdf:4413-2

> <ROCS_ShapeQuery>
_7L13

> <ROCS_TanimotoCombo>
0.829 

> <ROCS_ShapeTanimoto>
0.631 

> <ROCS_ColorTanimoto>
0.198 

> <ROCS_RefTversky>
0.789 

> <ROCS_RefColorTversky>
0.396 

> <ROCS_RefTverskyCombo>
1.185 

> <ROCS_FitTversky>
0.759 

> <ROCS_FitColorTversky>
0.284 

> <ROCS_FitTverskyCombo>
1.043 

> <ROCS_ColorScore>
-3.639

> <ROCS_Overlap>
1313.948

> <ROCS_Rank>
267                 

$$$$
ligprep_h3d.sdf:1306_1934
  -OEChem-08212117123D

 78 82  0     1  0  0  0  0  0999 V2000
  -20.0300   -3.9827  -32.2276 C   0  0  0  0  0  0  0  0  0  0  0  0
  -20.5639   -6.3299  -32.0220 C   0  0  0  0  0  0  0  0  0  0  0  0
  -19.4858   -4.2170  -33.4903 C   0  0  0  0  0  0  0  0  0  0  0  0
  -20.0198   -6.5643  -33.2848 C   0  0  0  0  0  0  0  0  0  0  0  0
  -16.8717   -6.0734  -26.4755 C   0  0  0  0  0  0  0  0  0  0  0  0
  -23.0381   -4.2412  -28.7995 C   0  0  0  0  0  0  0  0  0  0  0  0
  -20.7135   -4.4685  -25.3623 C   0  0  0  0  0  0  0  0  0  0  0  0
  -16.7073   -4.6806  -26.5974 C   0  0  0  0  0  0  0  0  0  0  0  0
  -20.9044   -4.6359  -27.7665 C   0  0  0  0  0  0  0  0  0  0  0  0
  -20.5690   -5.0391  -31.4934 C   0  0  0  0  0  0  0  0  0  0  0  0
  -21.1358   -4.7949  -30.1775 C   0  0  0  0  0  0  0  0  0  0  0  0
  -19.4808   -5.5078  -34.0190 C   0  0  0  0  0  0  0  0  0  0  0  0
  -22.4834   -4.4780  -30.0597 C   0  0  0  0  0  0  0  0  0  0  0  0
  -20.3462   -4.8741  -29.0340 C   0  0  0  0  0  0  0  0  0  0  0  0
  -22.2719   -4.3139  -27.6394 C   0  0  0  0  0  0  0  0  0  0  0  0
  -20.1326   -4.7090  -26.5991 C   0  0  0  0  0  0  0  0  0  0  0  0
  -22.0586   -4.1605  -25.3381 C   0  0  0  0  0  0  0  0  0  0  0  0
  -18.2326   -6.2585  -26.4608 C   0  0  0  0  0  0  0  0  0  0  0  0
  -19.7767   -7.5707  -36.8935 C   0  0  0  0  0  0  0  0  0  0  0  0
  -22.7289   -3.8990  -24.0760 C   0  0  0  0  0  0  0  0  0  0  0  0
  -21.9121   -6.6164  -37.3338 C   0  0  0  0  0  0  0  0  0  0  0  0
  -21.0017   -5.5537  -36.7508 C   0  0  0  0  0  0  0  0  0  0  0  0
  -20.9408   -7.6669  -37.8615 C   0  0  2  0  0  0  0  0  0  0  0  0
  -23.3764   -4.3784  -31.2556 C   0  0  0  0  0  0  0  0  0  0  0  0
  -18.8982   -5.2215  -29.2394 C   0  0  0  0  0  0  0  0  0  0  0  0
  -19.0320   -7.4948  -26.3534 C   0  0  0  0  0  0  0  0  0  0  0  0
  -26.4557   -8.4541  -22.3434 C   0  0  0  0  0  0  0  0  0  0  0  0
  -27.8250   -4.8492  -23.6846 C   0  0  0  0  0  0  0  0  0  0  0  0
  -18.8988   -5.7585  -35.3690 C   0  0  0  0  0  0  0  0  0  0  0  0
  -24.8978   -4.0033  -22.8206 C   0  0  0  0  0  0  0  0  0  0  0  0
  -25.4864   -5.2923  -22.2800 C   0  0  0  0  0  0  0  0  0  0  0  0
  -17.8707   -4.0273  -26.6562 N   0  0  0  0  0  0  0  0  0  0  0  0
  -22.8383   -4.0798  -26.4406 N   0  0  0  0  0  0  0  0  0  0  0  0
  -27.2235   -7.2679  -22.6998 N   0  0  0  0  0  0  0  0  0  0  0  0
  -18.7793   -5.0139  -26.5709 N   0  0  0  0  0  0  0  0  0  0  0  0
  -19.8650   -6.3171  -36.2894 N   0  0  0  0  0  0  0  0  0  0  0  0
  -24.0887   -4.2247  -23.9975 N   0  0  0  0  0  0  0  0  0  0  0  0
  -18.9356   -8.4389  -36.7168 O   0  0  0  0  0  0  0  0  0  0  0  0
  -22.1101   -3.3880  -23.1247 O   0  0  0  0  0  0  0  0  0  0  0  0
  -25.8307   -6.1783  -24.6974 O   0  0  0  0  0  0  0  0  0  0  0  0
  -21.5277   -8.9429  -37.8647 O   0  0  0  0  0  0  0  0  0  0  0  0
  -26.5594   -6.0791  -23.4408 S   0  0  1  0  0  0  0  0  0  0  0  0
  -20.0259   -2.9710  -31.8290 H   0  0  0  0  0  0  0  0  0  0  0  0
  -20.9809   -7.1638  -31.4622 H   0  0  0  0  0  0  0  0  0  0  0  0
  -19.0670   -3.3882  -34.0548 H   0  0  0  0  0  0  0  0  0  0  0  0
  -20.0205   -7.5732  -33.6892 H   0  0  0  0  0  0  0  0  0  0  0  0
  -16.1086   -6.8350  -26.4082 H   0  0  0  0  0  0  0  0  0  0  0  0
  -24.0963   -3.9938  -28.7222 H   0  0  0  0  0  0  0  0  0  0  0  0
  -20.1380   -4.5186  -24.4420 H   0  0  0  0  0  0  0  0  0  0  0  0
  -15.7881   -4.1147  -26.6461 H   0  0  0  0  0  0  0  0  0  0  0  0
  -22.5616   -7.0421  -36.5585 H   0  0  0  0  0  0  0  0  0  0  0  0
  -22.5596   -6.2246  -38.1242 H   0  0  0  0  0  0  0  0  0  0  0  0
  -20.6584   -4.8439  -37.5097 H   0  0  0  0  0  0  0  0  0  0  0  0
  -21.4715   -5.0197  -35.9206 H   0  0  0  0  0  0  0  0  0  0  0  0
  -20.5897   -7.4115  -38.8674 H   0  0  0  0  0  0  0  0  0  0  0  0
  -23.3736   -3.3545  -31.6447 H   0  0  0  0  0  0  0  0  0  0  0  0
  -23.0474   -5.0575  -32.0507 H   0  0  0  0  0  0  0  0  0  0  0  0
  -24.4064   -4.6556  -31.0023 H   0  0  0  0  0  0  0  0  0  0  0  0
  -18.7689   -6.3060  -29.2023 H   0  0  0  0  0  0  0  0  0  0  0  0
  -18.5454   -4.8522  -30.2063 H   0  0  0  0  0  0  0  0  0  0  0  0
  -18.2767   -4.7606  -28.4665 H   0  0  0  0  0  0  0  0  0  0  0  0
  -19.2483   -7.7378  -25.3002 H   0  0  0  0  0  0  0  0  0  0  0  0
  -19.9964   -7.4112  -26.8830 H   0  0  0  0  0  0  0  0  0  0  0  0
  -18.5145   -8.3620  -26.7981 H   0  0  0  0  0  0  0  0  0  0  0  0
  -26.0164   -8.3327  -21.3499 H   0  0  0  0  0  0  0  0  0  0  0  0
  -25.6542   -8.6151  -23.0691 H   0  0  0  0  0  0  0  0  0  0  0  0
  -27.1075   -9.3314  -22.3369 H   0  0  0  0  0  0  0  0  0  0  0  0
  -28.5525   -5.2404  -24.3975 H   0  0  0  0  0  0  0  0  0  0  0  0
  -28.3008   -4.6495  -22.7233 H   0  0  0  0  0  0  0  0  0  0  0  0
  -27.3556   -3.9448  -24.0745 H   0  0  0  0  0  0  0  0  0  0  0  0
  -18.5175   -4.8291  -35.8148 H   0  0  0  0  0  0  0  0  0  0  0  0
  -18.0520   -6.4569  -35.3195 H   0  0  0  0  0  0  0  0  0  0  0  0
  -25.6797   -3.2856  -23.0877 H   0  0  0  0  0  0  0  0  0  0  0  0
  -24.2482   -3.5425  -22.0703 H   0  0  0  0  0  0  0  0  0  0  0  0
  -26.0921   -5.0912  -21.3914 H   0  0  0  0  0  0  0  0  0  0  0  0
  -24.7086   -6.0169  -22.0206 H   0  0  0  0  0  0  0  0  0  0  0  0
  -24.5610   -4.5805  -24.8221 H   0  0  0  0  0  0  0  0  0  0  0  0
  -22.2634   -8.9297  -38.5057 H   0  0  0  0  0  0  0  0  0  0  0  0
  1  3  1  0  0  0  0
  1 10  2  0  0  0  0
  2  4  2  0  0  0  0
  2 10  1  0  0  0  0
  3 12  2  0  0  0  0
  4 12  1  0  0  0  0
  5  8  1  0  0  0  0
  5 18  2  0  0  0  0
  6 13  2  0  0  0  0
  6 15  1  0  0  0  0
  7 16  1  0  0  0  0
  7 17  2  0  0  0  0
  8 32  2  0  0  0  0
  9 14  1  0  0  0  0
  9 15  1  0  0  0  0
  9 16  2  0  0  0  0
 10 11  1  0  0  0  0
 11 13  1  0  0  0  0
 11 14  2  0  0  0  0
 12 29  1  0  0  0  0
 13 24  1  0  0  0  0
 14 25  1  0  0  0  0
 15 33  2  0  0  0  0
 16 35  1  0  0  0  0
 17 20  1  0  0  0  0
 17 33  1  0  0  0  0
 18 26  1  0  0  0  0
 18 35  1  0  0  0  0
 19 23  1  0  0  0  0
 19 36  1  0  0  0  0
 19 38  2  0  0  0  0
 20 37  1  0  0  0  0
 20 39  2  0  0  0  0
 21 22  1  0  0  0  0
 21 23  1  0  0  0  0
 22 36  1  0  0  0  0
 23 41  1  0  0  0  0
 27 34  1  0  0  0  0
 28 42  1  0  0  0  0
 29 36  1  0  0  0  0
 30 31  1  0  0  0  0
 30 37  1  0  0  0  0
 31 42  1  0  0  0  0
 32 35  1  0  0  0  0
 34 42  2  0  0  0  0
 40 42  2  0  0  0  0
  1 43  1  0  0  0  0
  2 44  1  0  0  0  0
  3 45  1  0  0  0  0
  4 46  1  0  0  0  0
  5 47  1  0  0  0  0
  6 48  1  0  0  0  0
  7 49  1  0  0  0  0
  8 50  1  0  0  0  0
 21 51  1  0  0  0  0
 21 52  1  0  0  0  0
 22 53  1  0  0  0  0
 22 54  1  0  0  0  0
 23 55  1  0  0  0  0
 24 56  1  0  0  0  0
 24 57  1  0  0  0  0
 24 58  1  0  0  0  0
 25 59  1  0  0  0  0
 25 60  1  0  0  0  0
 25 61  1  0  0  0  0
 26 62  1  0  0  0  0
 26 63  1  0  0  0  0
 26 64  1  0  0  0  0
 27 65  1  0  0  0  0
 27 66  1  0  0  0  0
 27 67  1  0  0  0  0
 28 68  1  0  0  0  0
 28 69  1  0  0  0  0
 28 70  1  0  0  0  0
 29 71  1  0  0  0  0
 29 72  1  0  0  0  0
 30 73  1  0  0  0  0
 30 74  1  0  0  0  0
 31 75  1  0  0  0  0
 31 76  1  0  0  0  0
 37 77  1  0  0  0  0
 41 78  1  0  0  0  0
M  END
> <SMILES>
CN=S(=O)(C)CCNC(=O)c1cc(c2c(c(c(cc2n1)C)-c1ccc(cc1)CN1CC[C@H](O)C1=O)C)-n1nccc1C

> <FORMATTED_ID>
H3D-008755

> <MOLFORMULA>
C31H36N6O4S

> <Exact Mass>
588.25

> <XLogP>
3.5

> <TPSA_NOPS>
138.2

> <s_m_source_file>
ligprep_h3d.sdf

> <i_m_source_file_index>
1306

> <i_lp_mmshare_version>
55123

> <i_f3d_flags>
0

> <s_epik_input>
W0NIM11jMVtjSF1bY0hdbm4xLWMyW2NIXWMoQyg9TylbTkhdW0NIMl1bQ0gyXVtTQF0oPU8pKFtDSDNdKT1OW0NIM10pbmMoYzIzKVtjSF1jKFtDSDNdKWMoYzNbQ0gzXSktYzRbY0hdW2NIXWMoW2NIXVtjSF00KVtDSDJdTjVbQ0gyXVtDSDJdW0NASF0oW09IXSlDNT1P

> <s_epik_cmdline>
J2VwaWtfcHl0aG9uJywgJy1waHQnLCAnMC41JywgJy1waCcsICc3LjUnLCAnLXRuJywgJzgnLCAnLW1hJywgJzUwMCcsICctaW1hZScsICc8aW5maWxlLm1hZT4nLCAnLW9tYWUnLCAnPG91dGZpbGUubWFlPic=

> <r_lp_tautomer_probability>
1

> <r_epik_Ionization_Penalty>
0.00026527

> <r_epik_Ionization_Penalty_Charging>
0

> <r_epik_Ionization_Penalty_Neutral>
0.00026527

> <r_epik_State_Penalty>
-0

> <r_epik_Charging_Adjusted_Penalty>
0

> <i_epik_Tot_Q>
0

> <i_epik_Tot_abs_Q>
0

> <s_lp_Force_Field>
S-OPLS

> <r_lp_Energy>
37.2945

> <b_lp_Chiralities_Consistent>
1

> <s_lp_Variant>
ligprep_h3d.sdf:1306-1

> <ROCS_ShapeQuery>
_7L13

> <ROCS_TanimotoCombo>
0.688 

> <ROCS_ShapeTanimoto>
0.587 

> <ROCS_ColorTanimoto>
0.101 

> <ROCS_RefTversky>
0.789 

> <ROCS_RefColorTversky>
0.220 

> <ROCS_RefTverskyCombo>
1.009 

> <ROCS_FitTversky>
0.695 

> <ROCS_FitColorTversky>
0.158 

> <ROCS_FitTverskyCombo>
0.853 

> <ROCS_ColorScore>
-2.021

> <ROCS_Overlap>
1320.858

> <ROCS_Rank>
268                 

$$$$
ligprep_h3d.sdf:441_135
  -OEChem-08212117123D

 65 70  0     1  0  0  0  0  0999 V2000
  -21.0227   -5.1816  -29.4975 C   0  0  0  0  0  0  0  0  0  0  0  0
  -21.7712   -4.3997  -30.3797 C   0  0  0  0  0  0  0  0  0  0  0  0
  -21.1278   -4.9301  -28.1083 C   0  0  0  0  0  0  0  0  0  0  0  0
  -21.9921   -3.9435  -27.5771 C   0  0  0  0  0  0  0  0  0  0  0  0
  -22.5853   -3.4183  -29.8582 C   0  0  0  0  0  0  0  0  0  0  0  0
  -22.7244   -3.1548  -28.4953 C   0  0  0  0  0  0  0  0  0  0  0  0
  -21.9637   -4.2914  -31.7696 C   0  0  0  0  0  0  0  0  0  0  0  0
  -18.9036   -3.8902  -26.2411 C   0  0  0  0  0  0  0  0  0  0  0  0
  -19.2871   -6.0863  -25.0035 C   0  0  0  0  0  0  0  0  0  0  0  0
  -17.0892   -5.2760  -25.8308 C   0  0  0  0  0  0  0  0  0  0  0  0
  -20.2961   -5.7765  -27.1822 C   0  0  0  0  0  0  0  0  0  0  0  0
  -20.7902   -6.9771  -34.0046 C   0  0  0  0  0  0  0  0  0  0  0  0
  -21.4371   -6.5703  -32.6812 C   0  0  0  0  0  0  0  0  0  0  0  0
  -20.3954   -4.6359  -33.6996 C   0  0  0  0  0  0  0  0  0  0  0  0
  -23.0310   -2.7716  -25.6457 C   0  0  0  0  0  0  0  0  0  0  0  0
  -21.2175   -4.4766  -25.2317 C   0  0  2  0  0  0  0  0  0  0  0  0
  -19.7204   -5.9152  -34.1866 C   0  0  2  0  0  0  0  0  0  0  0  0
  -23.4051   -3.0750  -24.1919 C   0  0  1  0  0  0  0  0  0  0  0  0
  -21.0375   -3.5392  -24.0016 C   0  0  2  0  0  0  0  0  0  0  0  0
  -19.9055   -5.0154  -25.8912 C   0  0  2  0  0  0  0  0  0  0  0  0
  -24.4136   -4.2159  -24.0708 C   0  0  0  0  0  0  0  0  0  0  0  0
  -20.0858   -4.0245  -22.9155 C   0  0  0  0  0  0  0  0  0  0  0  0
  -18.0116   -5.0722  -35.7712 C   0  0  0  0  0  0  0  0  0  0  0  0
  -19.2991   -7.1365  -36.3018 C   0  0  0  0  0  0  0  0  0  0  0  0
  -22.8252   -3.3205  -32.0879 N   0  0  0  0  0  0  0  0  0  0  0  0
  -17.6499   -4.2673  -26.4990 N   0  5  0  0  0  0  0  0  0  0  0  0
  -17.9078   -6.1025  -25.0632 N   0  0  0  0  0  0  0  0  0  0  0  0
  -22.0945   -3.7595  -26.1960 N   0  0  3  0  0  0  0  0  0  0  0  0
  -21.3120   -5.1133  -32.6639 N   0  0  0  0  0  0  0  0  0  0  0  0
  -19.3192   -5.8025  -35.5999 N   0  3  0  0  0  0  0  0  0  0  0  0
  -19.2878   -2.7295  -26.3828 O   0  0  0  0  0  0  0  0  0  0  0  0
  -19.9388   -6.9055  -24.3595 O   0  0  0  0  0  0  0  0  0  0  0  0
  -15.8806   -5.5207  -25.8778 O   0  0  0  0  0  0  0  0  0  0  0  0
  -23.2159   -2.7675  -30.8739 O   0  0  0  0  0  0  0  0  0  0  0  0
  -22.2975   -3.3579  -23.3419 O   0  0  0  0  0  0  0  0  0  0  0  0
  -23.4667   -2.1021  -28.1317 F   0  0  0  0  0  0  0  0  0  0  0  0
  -20.3647   -5.9616  -29.8700 H   0  0  0  0  0  0  0  0  0  0  0  0
  -20.8778   -6.6771  -26.9424 H   0  0  0  0  0  0  0  0  0  0  0  0
  -19.3938   -6.1199  -27.7052 H   0  0  0  0  0  0  0  0  0  0  0  0
  -20.3200   -7.9571  -33.8981 H   0  0  0  0  0  0  0  0  0  0  0  0
  -21.5062   -7.0233  -34.8233 H   0  0  0  0  0  0  0  0  0  0  0  0
  -22.4959   -6.8533  -32.6554 H   0  0  0  0  0  0  0  0  0  0  0  0
  -20.9269   -7.0380  -31.8319 H   0  0  0  0  0  0  0  0  0  0  0  0
  -19.6575   -3.9663  -33.2468 H   0  0  0  0  0  0  0  0  0  0  0  0
  -20.9135   -4.0973  -34.4980 H   0  0  0  0  0  0  0  0  0  0  0  0
  -23.9440   -2.7969  -26.2757 H   0  0  0  0  0  0  0  0  0  0  0  0
  -22.6961   -1.7237  -25.6915 H   0  0  0  0  0  0  0  0  0  0  0  0
  -21.8109   -5.3419  -24.8950 H   0  0  0  0  0  0  0  0  0  0  0  0
  -18.7950   -6.1498  -33.6135 H   0  0  0  0  0  0  0  0  0  0  0  0
  -23.9323   -2.1561  -23.7574 H   0  0  0  0  0  0  0  0  0  0  0  0
  -20.6852   -2.5399  -24.3149 H   0  0  0  0  0  0  0  0  0  0  0  0
  -23.9847   -5.1366  -24.4667 H   0  0  0  0  0  0  0  0  0  0  0  0
  -25.3168   -3.9766  -24.6324 H   0  0  0  0  0  0  0  0  0  0  0  0
  -24.6782   -4.3703  -23.0245 H   0  0  0  0  0  0  0  0  0  0  0  0
  -20.3889   -5.0123  -22.5682 H   0  0  0  0  0  0  0  0  0  0  0  0
  -20.0990   -3.3338  -22.0723 H   0  0  0  0  0  0  0  0  0  0  0  0
  -19.0707   -4.0838  -23.3084 H   0  0  0  0  0  0  0  0  0  0  0  0
  -17.2362   -5.6534  -35.2689 H   0  0  0  0  0  0  0  0  0  0  0  0
  -17.8112   -4.9923  -36.8414 H   0  0  0  0  0  0  0  0  0  0  0  0
  -18.1182   -4.0851  -35.3172 H   0  0  0  0  0  0  0  0  0  0  0  0
  -18.5506   -7.7610  -35.8106 H   0  0  0  0  0  0  0  0  0  0  0  0
  -20.2949   -7.5751  -36.2145 H   0  0  0  0  0  0  0  0  0  0  0  0
  -19.0381   -6.9601  -37.3470 H   0  0  0  0  0  0  0  0  0  0  0  0
  -17.4382   -6.7924  -24.4843 H   0  0  0  0  0  0  0  0  0  0  0  0
  -20.0333   -5.2330  -36.0829 H   0  0  0  0  0  0  0  0  0  0  0  0
  1  2  2  0  0  0  0
  1  3  1  0  0  0  0
  2  5  1  0  0  0  0
  2  7  1  0  0  0  0
  3  4  2  0  0  0  0
  3 11  1  0  0  0  0
  4  6  1  0  0  0  0
  4 28  1  0  0  0  0
  5  6  2  0  0  0  0
  5 34  1  0  0  0  0
  6 36  1  0  0  0  0
  7 25  2  0  0  0  0
  7 29  1  0  0  0  0
  8 20  1  0  0  0  0
  8 26  1  0  0  0  0
  8 31  2  0  0  0  0
  9 20  1  0  0  0  0
  9 27  1  0  0  0  0
  9 32  2  0  0  0  0
 10 26  1  0  0  0  0
 10 27  1  0  0  0  0
 10 33  2  0  0  0  0
 11 20  1  0  0  0  0
 12 13  1  0  0  0  0
 12 17  1  0  0  0  0
 13 29  1  0  0  0  0
 14 17  1  0  0  0  0
 14 29  1  0  0  0  0
 15 18  1  0  0  0  0
 15 28  1  0  0  0  0
 16 19  1  0  0  0  0
 16 20  1  0  0  0  0
 16 28  1  0  0  0  0
 17 30  1  0  0  0  0
 18 21  1  0  0  0  0
 18 35  1  0  0  0  0
 19 22  1  0  0  0  0
 19 35  1  0  0  0  0
 23 30  1  0  0  0  0
 24 30  1  0  0  0  0
 25 34  1  0  0  0  0
  1 37  1  0  0  0  0
 11 38  1  0  0  0  0
 11 39  1  0  0  0  0
 12 40  1  0  0  0  0
 12 41  1  0  0  0  0
 13 42  1  0  0  0  0
 13 43  1  0  0  0  0
 14 44  1  0  0  0  0
 14 45  1  0  0  0  0
 15 46  1  0  0  0  0
 15 47  1  0  0  0  0
 16 48  1  0  0  0  0
 17 49  1  0  0  0  0
 18 50  1  0  0  0  0
 19 51  1  0  0  0  0
 21 52  1  0  0  0  0
 21 53  1  0  0  0  0
 21 54  1  0  0  0  0
 22 55  1  0  0  0  0
 22 56  1  0  0  0  0
 22 57  1  0  0  0  0
 23 58  1  0  0  0  0
 23 59  1  0  0  0  0
 23 60  1  0  0  0  0
 24 61  1  0  0  0  0
 24 62  1  0  0  0  0
 24 63  1  0  0  0  0
 27 64  1  0  0  0  0
 30 65  1  0  0  0  0
M  CHG  2  26  -1  30   1
M  END
> <SMILES>
CC1CN2C(C(C)O1)C1(Cc3cc4c(noc4c(c32)F)N2CC[C@H](C2)N(C)C)C(=O)NC(=O)NC1=O

> <FORMATTED_ID>
H3D-003946

> <MOLFORMULA>
C24H29FN6O5

> <Exact Mass>
500.22

> <XLogP>
0.55

> <TPSA_NOPS>
120.6

> <s_m_source_file>
ligprep_h3d.sdf

> <i_m_source_file_index>
441

> <i_lp_mmshare_version>
55123

> <i_f3d_flags>
0

> <s_epik_input>
Tz1DMVtOSF1DKD1PKVtOSF1DKD1PKUMxMltDQEBIXTNOKFtDSDJdW0NAQEhdKFtDSDNdKU9bQ0BIXTNbQ0gzXSljNGMoW0NIMl0yKVtjSF1jNWMoYzRGKW9uYzVONltDSDJdW0NIMl1bQ0BIXShbQ0gyXTYpTihbQ0gzXSlbQ0gzXQ==

> <s_epik_cmdline>
J2VwaWtfcHl0aG9uJywgJy1waHQnLCAnMC41JywgJy1waCcsICc3LjUnLCAnLXRuJywgJzgnLCAnLW1hJywgJzUwMCcsICctaW1hZScsICc8aW5maWxlLm1hZT4nLCAnLW9tYWUnLCAnPG91dGZpbGUubWFlPic=

> <r_lp_tautomer_probability>
1

> <r_epik_Ionization_Penalty>
0.469938

> <r_epik_Ionization_Penalty_Charging>
0.469924

> <r_epik_Ionization_Penalty_Neutral>
1.46477e-05

> <r_epik_State_Penalty>
0.458483

> <r_epik_Charging_Adjusted_Penalty>
0.928407

> <i_epik_Tot_Q>
0

> <i_epik_Tot_abs_Q>
2

> <s_lp_Force_Field>
S-OPLS

> <r_lp_Energy>
68.2238

> <b_lp_Chiralities_Consistent>
1

> <s_lp_Variant>
ligprep_h3d.sdf:441-2

> <ROCS_ShapeQuery>
_7L13

> <ROCS_TanimotoCombo>
0.766 

> <ROCS_ShapeTanimoto>
0.641 

> <ROCS_ColorTanimoto>
0.125 

> <ROCS_RefTversky>
0.789 

> <ROCS_RefColorTversky>
0.297 

> <ROCS_RefTverskyCombo>
1.086 

> <ROCS_FitTversky>
0.773 

> <ROCS_FitColorTversky>
0.177 

> <ROCS_FitTverskyCombo>
0.950 

> <ROCS_ColorScore>
-2.777

> <ROCS_Overlap>
1312.288

> <ROCS_Rank>
269                 

$$$$
ligprep_h3d.sdf:1195_1619
  -OEChem-08212117123D

 75 79  0     1  0  0  0  0  0999 V2000
  -20.1735   -3.9905  -32.2564 C   0  0  0  0  0  0  0  0  0  0  0  0
  -20.5219   -6.3673  -31.9985 C   0  0  0  0  0  0  0  0  0  0  0  0
  -19.6363   -4.2069  -33.5253 C   0  0  0  0  0  0  0  0  0  0  0  0
  -19.9848   -6.5837  -33.2675 C   0  0  0  0  0  0  0  0  0  0  0  0
  -16.7586   -5.7231  -26.5319 C   0  0  0  0  0  0  0  0  0  0  0  0
  -23.0891   -4.4119  -28.7652 C   0  0  0  0  0  0  0  0  0  0  0  0
  -20.6909   -4.3949  -25.3713 C   0  0  0  0  0  0  0  0  0  0  0  0
  -16.7037   -4.3244  -26.6818 C   0  0  0  0  0  0  0  0  0  0  0  0
  -20.9128   -4.6227  -27.7679 C   0  0  0  0  0  0  0  0  0  0  0  0
  -20.6162   -5.0707  -31.4929 C   0  0  0  0  0  0  0  0  0  0  0  0
  -21.1758   -4.8452  -30.1706 C   0  0  0  0  0  0  0  0  0  0  0  0
  -19.5420   -5.5035  -34.0309 C   0  0  0  0  0  0  0  0  0  0  0  0
  -22.5413   -4.6299  -30.0317 C   0  0  0  0  0  0  0  0  0  0  0  0
  -20.3614   -4.8419  -29.0417 C   0  0  0  0  0  0  0  0  0  0  0  0
  -22.2984   -4.4036  -27.6194 C   0  0  0  0  0  0  0  0  0  0  0  0
  -20.1162   -4.6142  -26.6149 C   0  0  0  0  0  0  0  0  0  0  0  0
  -22.0550   -4.1901  -25.3259 C   0  0  0  0  0  0  0  0  0  0  0  0
  -18.1007   -6.0112  -26.4869 C   0  0  0  0  0  0  0  0  0  0  0  0
  -19.7319   -7.6379  -36.8619 C   0  0  0  0  0  0  0  0  0  0  0  0
  -22.7201   -3.9563  -24.0555 C   0  0  0  0  0  0  0  0  0  0  0  0
  -21.9419   -6.8579  -37.2765 C   0  0  0  0  0  0  0  0  0  0  0  0
  -21.1052   -5.7179  -36.7308 C   0  0  0  0  0  0  0  0  0  0  0  0
  -20.9028   -7.8412  -37.8047 C   0  0  2  0  0  0  0  0  0  0  0  0
  -23.4612   -4.6218  -31.2112 C   0  0  0  0  0  0  0  0  0  0  0  0
  -18.8951   -5.0816  -29.2697 C   0  0  0  0  0  0  0  0  0  0  0  0
  -18.8009   -7.3026  -26.3417 C   0  0  0  0  0  0  0  0  0  0  0  0
  -28.6790   -5.0284  -24.1708 C   0  0  0  0  0  0  0  0  0  0  0  0
  -18.9675   -5.7349  -35.3876 C   0  0  0  0  0  0  0  0  0  0  0  0
  -24.8510   -4.2017  -22.7557 C   0  0  0  0  0  0  0  0  0  0  0  0
  -26.3260   -4.0559  -23.0773 C   0  0  0  0  0  0  0  0  0  0  0  0
  -17.9147   -3.7630  -26.7291 N   0  0  0  0  0  0  0  0  0  0  0  0
  -22.8589   -4.1904  -26.4139 N   0  0  0  0  0  0  0  0  0  0  0  0
  -26.9256   -6.6513  -22.9737 N   0  0  0  0  0  0  0  0  0  0  0  0
  -18.7432   -4.8142  -26.6082 N   0  0  0  0  0  0  0  0  0  0  0  0
  -19.9049   -6.3832  -36.2785 N   0  0  0  0  0  0  0  0  0  0  0  0
  -24.0491   -4.3834  -23.9443 N   0  0  0  0  0  0  0  0  0  0  0  0
  -18.8236   -8.4357  -36.6866 O   0  0  0  0  0  0  0  0  0  0  0  0
  -22.1247   -3.3814  -23.1260 O   0  0  0  0  0  0  0  0  0  0  0  0
  -26.3592   -5.4378  -25.2753 O   0  0  0  0  0  0  0  0  0  0  0  0
  -21.3902   -9.1581  -37.7736 O   0  0  0  0  0  0  0  0  0  0  0  0
  -26.9637   -5.4513  -23.9512 S   0  0  1  0  0  0  0  0  0  0  0  0
  -20.2396   -2.9740  -31.8759 H   0  0  0  0  0  0  0  0  0  0  0  0
  -20.8634   -7.2196  -31.4158 H   0  0  0  0  0  0  0  0  0  0  0  0
  -19.2928   -3.3595  -34.1126 H   0  0  0  0  0  0  0  0  0  0  0  0
  -19.9157   -7.5973  -33.6538 H   0  0  0  0  0  0  0  0  0  0  0  0
  -15.9382   -6.4228  -26.4662 H   0  0  0  0  0  0  0  0  0  0  0  0
  -24.1616   -4.2445  -28.6712 H   0  0  0  0  0  0  0  0  0  0  0  0
  -20.0964   -4.3833  -24.4619 H   0  0  0  0  0  0  0  0  0  0  0  0
  -15.8317   -3.6910  -26.7588 H   0  0  0  0  0  0  0  0  0  0  0  0
  -22.5425   -7.3170  -36.4811 H   0  0  0  0  0  0  0  0  0  0  0  0
  -22.6321   -6.5320  -38.0608 H   0  0  0  0  0  0  0  0  0  0  0  0
  -20.8313   -4.9987  -37.5088 H   0  0  0  0  0  0  0  0  0  0  0  0
  -21.5991   -5.2054  -35.9010 H   0  0  0  0  0  0  0  0  0  0  0  0
  -20.5910   -7.5791  -38.8218 H   0  0  0  0  0  0  0  0  0  0  0  0
  -23.5441   -3.6083  -31.6184 H   0  0  0  0  0  0  0  0  0  0  0  0
  -23.0958   -5.2889  -32.0005 H   0  0  0  0  0  0  0  0  0  0  0  0
  -24.4620   -4.9718  -30.9326 H   0  0  0  0  0  0  0  0  0  0  0  0
  -18.6823   -6.1522  -29.2159 H   0  0  0  0  0  0  0  0  0  0  0  0
  -18.5895   -4.7052  -30.2498 H   0  0  0  0  0  0  0  0  0  0  0  0
  -18.2966   -4.5599  -28.5176 H   0  0  0  0  0  0  0  0  0  0  0  0
  -18.9784   -7.5411  -25.2803 H   0  0  0  0  0  0  0  0  0  0  0  0
  -19.7784   -7.3030  -26.8534 H   0  0  0  0  0  0  0  0  0  0  0  0
  -18.2267   -8.1362  -26.7811 H   0  0  0  0  0  0  0  0  0  0  0  0
  -29.1679   -5.8414  -24.7097 H   0  0  0  0  0  0  0  0  0  0  0  0
  -29.1300   -4.8968  -23.1860 H   0  0  0  0  0  0  0  0  0  0  0  0
  -28.7345   -4.1017  -24.7440 H   0  0  0  0  0  0  0  0  0  0  0  0
  -18.6669   -4.7879  -35.8573 H   0  0  0  0  0  0  0  0  0  0  0  0
  -18.0690   -6.3656  -35.3425 H   0  0  0  0  0  0  0  0  0  0  0  0
  -24.4659   -3.3234  -22.2285 H   0  0  0  0  0  0  0  0  0  0  0  0
  -24.6886   -5.0812  -22.1252 H   0  0  0  0  0  0  0  0  0  0  0  0
  -26.4908   -3.1887  -23.7238 H   0  0  0  0  0  0  0  0  0  0  0  0
  -26.9300   -3.9414  -22.1721 H   0  0  0  0  0  0  0  0  0  0  0  0
  -25.9842   -6.9948  -22.7622 H   0  0  0  0  0  0  0  0  0  0  0  0
  -24.5079   -4.7900  -24.7529 H   0  0  0  0  0  0  0  0  0  0  0  0
  -22.1364   -9.2134  -38.4000 H   0  0  0  0  0  0  0  0  0  0  0  0
  1  3  1  0  0  0  0
  1 10  2  0  0  0  0
  2  4  2  0  0  0  0
  2 10  1  0  0  0  0
  3 12  2  0  0  0  0
  4 12  1  0  0  0  0
  5  8  1  0  0  0  0
  5 18  2  0  0  0  0
  6 13  2  0  0  0  0
  6 15  1  0  0  0  0
  7 16  1  0  0  0  0
  7 17  2  0  0  0  0
  8 31  2  0  0  0  0
  9 14  1  0  0  0  0
  9 15  1  0  0  0  0
  9 16  2  0  0  0  0
 10 11  1  0  0  0  0
 11 13  1  0  0  0  0
 11 14  2  0  0  0  0
 12 28  1  0  0  0  0
 13 24  1  0  0  0  0
 14 25  1  0  0  0  0
 15 32  2  0  0  0  0
 16 34  1  0  0  0  0
 17 20  1  0  0  0  0
 17 32  1  0  0  0  0
 18 26  1  0  0  0  0
 18 34  1  0  0  0  0
 19 23  1  0  0  0  0
 19 35  1  0  0  0  0
 19 37  2  0  0  0  0
 20 36  1  0  0  0  0
 20 38  2  0  0  0  0
 21 22  1  0  0  0  0
 21 23  1  0  0  0  0
 22 35  1  0  0  0  0
 23 40  1  0  0  0  0
 27 41  1  0  0  0  0
 28 35  1  0  0  0  0
 29 30  1  0  0  0  0
 29 36  1  0  0  0  0
 30 41  1  0  0  0  0
 31 34  1  0  0  0  0
 33 41  2  0  0  0  0
 39 41  2  0  0  0  0
  1 42  1  0  0  0  0
  2 43  1  0  0  0  0
  3 44  1  0  0  0  0
  4 45  1  0  0  0  0
  5 46  1  0  0  0  0
  6 47  1  0  0  0  0
  7 48  1  0  0  0  0
  8 49  1  0  0  0  0
 21 50  1  0  0  0  0
 21 51  1  0  0  0  0
 22 52  1  0  0  0  0
 22 53  1  0  0  0  0
 23 54  1  0  0  0  0
 24 55  1  0  0  0  0
 24 56  1  0  0  0  0
 24 57  1  0  0  0  0
 25 58  1  0  0  0  0
 25 59  1  0  0  0  0
 25 60  1  0  0  0  0
 26 61  1  0  0  0  0
 26 62  1  0  0  0  0
 26 63  1  0  0  0  0
 27 64  1  0  0  0  0
 27 65  1  0  0  0  0
 27 66  1  0  0  0  0
 28 67  1  0  0  0  0
 28 68  1  0  0  0  0
 29 69  1  0  0  0  0
 29 70  1  0  0  0  0
 30 71  1  0  0  0  0
 30 72  1  0  0  0  0
 33 73  1  0  0  0  0
 36 74  1  0  0  0  0
 40 75  1  0  0  0  0
M  END
> <SMILES>
Cc1cc2nc(cc(c2c(c1-c1ccc(cc1)CN1CC[C@H](O)C1=O)C)-n1nccc1C)C(=O)NCCS(=N)(=O)C

> <FORMATTED_ID>
H3D-008293

> <MOLFORMULA>
C30H34N6O4S

> <Exact Mass>
574.24

> <XLogP>
3.27

> <TPSA_NOPS>
149.6

> <s_m_source_file>
ligprep_h3d.sdf

> <i_m_source_file_index>
1195

> <i_lp_mmshare_version>
55123

> <i_f3d_flags>
0

> <s_epik_input>
W05IXT1bU0BAXSg9TykoW0NIM10pW0NIMl1bQ0gyXVtOSF1DKD1PKWMobjEpW2NIXWMoLW4ybltjSF1bY0hdYzJbQ0gzXSljKGMxMyljKFtDSDNdKWMoYyhbQ0gzXSlbY0hdMyktYzRbY0hdW2NIXWMoW2NIXVtjSF00KVtDSDJdTjVbQ0gyXVtDSDJdW0NASF0oW09IXSlDNT1P

> <s_epik_cmdline>
J2VwaWtfcHl0aG9uJywgJy1waHQnLCAnMC41JywgJy1waCcsICc3LjUnLCAnLXRuJywgJzgnLCAnLW1hJywgJzUwMCcsICctaW1hZScsICc8aW5maWxlLm1hZT4nLCAnLW9tYWUnLCAnPG91dGZpbGUubWFlPic=

> <r_lp_tautomer_probability>
1

> <r_epik_Ionization_Penalty>
0.000265402

> <r_epik_Ionization_Penalty_Charging>
0

> <r_epik_Ionization_Penalty_Neutral>
0.000265402

> <r_epik_State_Penalty>
-0

> <r_epik_Charging_Adjusted_Penalty>
0

> <i_epik_Tot_Q>
0

> <i_epik_Tot_abs_Q>
0

> <s_lp_Force_Field>
S-OPLS

> <r_lp_Energy>
31.1895

> <b_lp_Chiralities_Consistent>
1

> <s_lp_Variant>
ligprep_h3d.sdf:1195-1

> <ROCS_ShapeQuery>
_7L13

> <ROCS_TanimotoCombo>
0.697 

> <ROCS_ShapeTanimoto>
0.596 

> <ROCS_ColorTanimoto>
0.101 

> <ROCS_RefTversky>
0.789 

> <ROCS_RefColorTversky>
0.220 

> <ROCS_RefTverskyCombo>
1.009 

> <ROCS_FitTversky>
0.709 

> <ROCS_FitColorTversky>
0.158 

> <ROCS_FitTverskyCombo>
0.867 

> <ROCS_ColorScore>
-2.025

> <ROCS_Overlap>
1318.980

> <ROCS_Rank>
270                 

$$$$
ligprep_h3d.sdf:4901_1742
  -OEChem-08212117123D

 60 64  0     1  0  0  0  0  0999 V2000
  -17.0896   -6.2759  -26.0860 C   0  0  0  0  0  0  0  0  0  0  0  0
  -16.9171   -3.9239  -25.5610 C   0  0  0  0  0  0  0  0  0  0  0  0
  -23.4018   -4.3166  -24.2548 C   0  0  0  0  0  0  0  0  0  0  0  0
  -25.7685   -4.3230  -24.7407 C   0  0  0  0  0  0  0  0  0  0  0  0
  -15.8332   -6.4942  -25.5209 C   0  0  0  0  0  0  0  0  0  0  0  0
  -15.6606   -4.1422  -24.9959 C   0  0  0  0  0  0  0  0  0  0  0  0
  -23.6641   -4.7953  -22.9712 C   0  0  0  0  0  0  0  0  0  0  0  0
  -26.0307   -4.8018  -23.4571 C   0  0  0  0  0  0  0  0  0  0  0  0
  -20.0697   -4.2456  -34.1651 C   0  0  0  0  0  0  0  0  0  0  0  0
  -20.4191   -6.1187  -32.6798 C   0  0  0  0  0  0  0  0  0  0  0  0
  -20.4965   -4.7499  -32.9367 C   0  0  0  0  0  0  0  0  0  0  0  0
  -17.6315   -4.9907  -26.1061 C   0  0  0  0  0  0  0  0  0  0  0  0
  -24.4541   -4.0803  -25.1395 C   0  0  0  0  0  0  0  0  0  0  0  0
  -19.4881   -6.4790  -34.8800 C   0  0  0  0  0  0  0  0  0  0  0  0
  -15.1187   -5.4274  -24.9758 C   0  0  0  0  0  0  0  0  0  0  0  0
  -24.9785   -5.0380  -22.5724 C   0  0  0  0  0  0  0  0  0  0  0  0
  -19.5655   -5.1101  -35.1368 C   0  0  0  0  0  0  0  0  0  0  0  0
  -19.9149   -6.9833  -33.6515 C   0  0  0  0  0  0  0  0  0  0  0  0
  -22.0623   -4.4912  -31.0109 C   0  0  0  0  0  0  0  0  0  0  0  0
  -22.6753   -5.1144  -28.6897 C   0  0  0  0  0  0  0  0  0  0  0  0
  -19.8218   -5.6598  -27.2884 C   0  0  0  0  0  0  0  0  0  0  0  0
  -19.8199   -3.6983  -26.5345 C   0  0  0  0  0  0  0  0  0  0  0  0
  -20.5874   -3.9183  -29.0308 C   0  0  0  0  0  0  0  0  0  0  0  0
  -22.1986   -4.6248  -27.3261 C   0  0  1  0  0  0  0  0  0  0  0  0
  -20.7035   -4.4141  -27.5856 C   0  0  0  0  0  0  0  0  0  0  0  0
  -21.0387   -3.8205  -31.8920 C   0  0  0  0  0  0  0  0  0  0  0  0
  -22.8892   -3.3216  -26.9287 C   0  0  0  0  0  0  0  0  0  0  0  0
  -18.8943   -4.7713  -26.6741 N   0  0  0  0  0  0  0  0  0  0  0  0
  -21.7759   -4.4949  -29.6550 N   0  0  0  0  0  0  0  0  0  0  0  0
  -24.1915   -3.6008  -26.4249 N   0  0  0  0  0  0  0  0  0  0  0  0
  -19.0255   -7.2733  -35.7728 O   0  5  0  0  0  0  0  0  0  0  0  0
  -23.0723   -4.9964  -31.5039 O   0  0  0  0  0  0  0  0  0  0  0  0
  -13.9121   -5.6370  -24.4332 F   0  0  0  0  0  0  0  0  0  0  0  0
  -25.2303   -5.4978  -21.3397 F   0  0  0  0  0  0  0  0  0  0  0  0
  -19.1618   -4.5988  -36.3109 F   0  0  0  0  0  0  0  0  0  0  0  0
  -19.8510   -8.2964  -33.3786 F   0  0  0  0  0  0  0  0  0  0  0  0
  -17.6378   -7.1144  -26.5077 H   0  0  0  0  0  0  0  0  0  0  0  0
  -17.3298   -2.9183  -25.5715 H   0  0  0  0  0  0  0  0  0  0  0  0
  -22.3738   -4.1312  -24.5553 H   0  0  0  0  0  0  0  0  0  0  0  0
  -26.5960   -4.1422  -25.4219 H   0  0  0  0  0  0  0  0  0  0  0  0
  -15.4110   -7.4946  -25.5049 H   0  0  0  0  0  0  0  0  0  0  0  0
  -15.1038   -3.3120  -24.5716 H   0  0  0  0  0  0  0  0  0  0  0  0
  -22.8451   -4.9796  -22.2822 H   0  0  0  0  0  0  0  0  0  0  0  0
  -27.0539   -4.9907  -23.1459 H   0  0  0  0  0  0  0  0  0  0  0  0
  -20.1261   -3.1808  -34.3742 H   0  0  0  0  0  0  0  0  0  0  0  0
  -20.7482   -6.5206  -31.7255 H   0  0  0  0  0  0  0  0  0  0  0  0
  -22.5426   -6.1986  -28.7844 H   0  0  0  0  0  0  0  0  0  0  0  0
  -23.7196   -4.8754  -28.9143 H   0  0  0  0  0  0  0  0  0  0  0  0
  -20.2397   -6.3797  -26.5760 H   0  0  0  0  0  0  0  0  0  0  0  0
  -19.4051   -6.1899  -28.1490 H   0  0  0  0  0  0  0  0  0  0  0  0
  -19.4041   -2.7307  -26.8263 H   0  0  0  0  0  0  0  0  0  0  0  0
  -20.2388   -3.6422  -25.5242 H   0  0  0  0  0  0  0  0  0  0  0  0
  -20.6697   -2.8282  -29.0956 H   0  0  0  0  0  0  0  0  0  0  0  0
  -19.6785   -4.2448  -29.5440 H   0  0  0  0  0  0  0  0  0  0  0  0
  -22.3861   -5.3758  -26.5507 H   0  0  0  0  0  0  0  0  0  0  0  0
  -20.2287   -3.4481  -31.2623 H   0  0  0  0  0  0  0  0  0  0  0  0
  -21.5011   -2.9466  -32.3534 H   0  0  0  0  0  0  0  0  0  0  0  0
  -22.2742   -2.8513  -26.1636 H   0  0  0  0  0  0  0  0  0  0  0  0
  -22.9477   -2.7025  -27.8222 H   0  0  0  0  0  0  0  0  0  0  0  0
  -25.0024   -3.4450  -27.0294 H   0  0  0  0  0  0  0  0  0  0  0  0
  1  5  1  0  0  0  0
  1 12  2  0  0  0  0
  2  6  2  0  0  0  0
  2 12  1  0  0  0  0
  3  7  1  0  0  0  0
  3 13  2  0  0  0  0
  4  8  2  0  0  0  0
  4 13  1  0  0  0  0
  5 15  2  0  0  0  0
  6 15  1  0  0  0  0
  7 16  2  0  0  0  0
  8 16  1  0  0  0  0
  9 11  2  0  0  0  0
  9 17  1  0  0  0  0
 10 11  1  0  0  0  0
 10 18  2  0  0  0  0
 11 26  1  0  0  0  0
 12 28  1  0  0  0  0
 13 30  1  0  0  0  0
 14 17  2  0  0  0  0
 14 18  1  0  0  0  0
 14 31  1  0  0  0  0
 15 33  1  0  0  0  0
 16 34  1  0  0  0  0
 17 35  1  0  0  0  0
 18 36  1  0  0  0  0
 19 26  1  0  0  0  0
 19 29  1  0  0  0  0
 19 32  2  0  0  0  0
 20 24  1  0  0  0  0
 20 29  1  0  0  0  0
 21 25  1  0  0  0  0
 21 28  1  0  0  0  0
 22 25  1  0  0  0  0
 22 28  1  0  0  0  0
 23 25  1  0  0  0  0
 23 29  1  0  0  0  0
 24 25  1  0  0  0  0
 24 27  1  0  0  0  0
 27 30  1  0  0  0  0
  1 37  1  0  0  0  0
  2 38  1  0  0  0  0
  3 39  1  0  0  0  0
  4 40  1  0  0  0  0
  5 41  1  0  0  0  0
  6 42  1  0  0  0  0
  7 43  1  0  0  0  0
  8 44  1  0  0  0  0
  9 45  1  0  0  0  0
 10 46  1  0  0  0  0
 20 47  1  0  0  0  0
 20 48  1  0  0  0  0
 21 49  1  0  0  0  0
 21 50  1  0  0  0  0
 22 51  1  0  0  0  0
 22 52  1  0  0  0  0
 23 53  1  0  0  0  0
 23 54  1  0  0  0  0
 24 55  1  0  0  0  0
 26 56  1  0  0  0  0
 26 57  1  0  0  0  0
 27 58  1  0  0  0  0
 27 59  1  0  0  0  0
 30 60  1  0  0  0  0
M  CHG  1  31  -1
M  END
> <SMILES>
Oc1c(cc(cc1F)CC(=O)N1CC(CNc2ccc(cc2)F)C2(C1)CN(C2)c1ccc(cc1)F)F

> <FORMATTED_ID>
H3D-008311

> <MOLFORMULA>
C27H25F4N3O2

> <Exact Mass>
499.19

> <XLogP>
4.22

> <TPSA_NOPS>
55.8

> <s_m_source_file>
ligprep_h3d.sdf

> <i_m_source_file_index>
4901

> <i_lp_mmshare_version>
55123

> <i_f3d_flags>
0

> <s_epik_input>
W09IXWMxYyhGKVtjSF1jKFtjSF1jMUYpW0NIMl1DKD1PKU4oW0NIMl0yKVtDSDJdW0NASF0oW0NIMl1bTkhdYzNbY0hdW2NIXWMoRilbY0hdW2NIXTMpQzI0W0NIMl1OKFtDSDJdNCljNVtjSF1bY0hdYyhGKVtjSF1bY0hdNQ==

> <s_epik_cmdline>
J2VwaWtfcHl0aG9uJywgJy1waHQnLCAnMC41JywgJy1waCcsICc3LjUnLCAnLXRuJywgJzgnLCAnLW1hJywgJzUwMCcsICctaW1hZScsICc8aW5maWxlLm1hZT4nLCAnLW9tYWUnLCAnPG91dGZpbGUubWFlPic=

> <r_epik_Ionization_Penalty>
0.252634

> <r_epik_Ionization_Penalty_Charging>
0.249405

> <r_epik_Ionization_Penalty_Neutral>
0.00322967

> <r_epik_State_Penalty>
0.24069

> <r_epik_Charging_Adjusted_Penalty>
0.490094

> <i_epik_Tot_Q>
-1

> <i_epik_Tot_abs_Q>
1

> <s_lp_Force_Field>
S-OPLS

> <r_lp_Energy>
49.856

> <b_lp_Chiralities_Consistent>
1

> <s_lp_Variant>
ligprep_h3d.sdf:4901-1

> <ROCS_ShapeQuery>
_7L13

> <ROCS_TanimotoCombo>
0.720 

> <ROCS_ShapeTanimoto>
0.653 

> <ROCS_ColorTanimoto>
0.067 

> <ROCS_RefTversky>
0.789 

> <ROCS_RefColorTversky>
0.125 

> <ROCS_RefTverskyCombo>
0.914 

> <ROCS_FitTversky>
0.791 

> <ROCS_FitColorTversky>
0.125 

> <ROCS_FitTverskyCombo>
0.916 

> <ROCS_ColorScore>
-1.126

> <ROCS_Overlap>
1309.944

> <ROCS_Rank>
271                 

$$$$
ligprep_h3d.sdf:2387_1451
  -OEChem-08212117123D

 63 67  0     1  0  0  0  0  0999 V2000
  -23.6704   -2.8761  -30.5782 C   0  0  0  0  0  0  0  0  0  0  0  0
  -22.1229   -3.3522  -23.4762 C   0  0  0  0  0  0  0  0  0  0  0  0
  -23.0960   -5.1894  -24.7070 C   0  0  0  0  0  0  0  0  0  0  0  0
  -22.8433   -3.1692  -29.4939 C   0  0  0  0  0  0  0  0  0  0  0  0
  -23.4334   -3.4715  -31.8172 C   0  0  0  0  0  0  0  0  0  0  0  0
  -23.3604   -3.0906  -22.8883 C   0  0  0  0  0  0  0  0  0  0  0  0
  -24.3336   -4.9277  -24.1191 C   0  0  0  0  0  0  0  0  0  0  0  0
  -21.5421   -4.6530  -30.8877 C   0  0  0  0  0  0  0  0  0  0  0  0
  -19.5054   -5.0051  -24.4236 C   0  0  0  0  0  0  0  0  0  0  0  0
  -21.9907   -4.4016  -24.3856 C   0  0  0  0  0  0  0  0  0  0  0  0
  -21.7792   -4.0576  -29.6487 C   0  0  0  0  0  0  0  0  0  0  0  0
  -22.3693   -4.3599  -31.9719 C   0  0  0  0  0  0  0  0  0  0  0  0
  -24.4658   -3.8783  -23.2097 C   0  0  0  0  0  0  0  0  0  0  0  0
  -20.7107   -4.6723  -24.9936 C   0  0  0  0  0  0  0  0  0  0  0  0
  -19.1396   -4.9491  -26.5280 C   0  0  0  0  0  0  0  0  0  0  0  0
  -18.6663   -4.9803  -27.8578 C   0  0  0  0  0  0  0  0  0  0  0  0
  -19.5012   -4.7022  -28.8663 C   0  0  0  0  0  0  0  0  0  0  0  0
  -20.9174   -4.3629  -28.5175 C   0  0  0  0  0  0  0  0  0  0  0  0
  -22.1176   -4.9933  -33.2920 C   0  0  0  0  0  0  0  0  0  0  0  0
  -20.5534   -7.4896  -34.7285 C   0  0  0  0  0  0  0  0  0  0  0  0
  -18.9644   -5.5637  -35.1364 C   0  0  0  0  0  0  0  0  0  0  0  0
  -20.0764   -8.1519  -36.0170 C   0  0  0  0  0  0  0  0  0  0  0  0
  -18.4900   -6.2314  -36.4230 C   0  0  0  0  0  0  0  0  0  0  0  0
  -20.3996   -5.9672  -34.7885 C   0  0  2  0  0  0  0  0  0  0  0  0
  -18.6438   -7.7502  -36.3605 C   0  0  2  0  0  0  0  0  0  0  0  0
  -17.9443   -9.6852  -37.4911 C   0  0  0  0  0  0  0  0  0  0  0  0
  -26.6714   -2.3803  -23.7024 C   0  0  0  0  0  0  0  0  0  0  0  0
  -18.5364   -5.1757  -25.3787 N   0  0  0  0  0  0  0  0  0  0  0  0
  -21.3892   -4.3414  -27.3024 N   0  0  0  0  0  0  0  0  0  0  0  0
  -20.4723   -4.6361  -26.3423 N   0  0  0  0  0  0  0  0  0  0  0  0
  -20.8067   -5.3633  -33.5428 N   0  0  0  0  0  0  0  0  0  0  0  0
  -23.0510   -5.1338  -34.0778 O   0  0  0  0  0  0  0  0  0  0  0  0
  -26.8707   -4.7992  -22.5832 O   0  0  0  0  0  0  0  0  0  0  0  0
  -18.3026   -8.3179  -37.6205 O   0  0  0  0  0  0  0  0  0  0  0  0
  -26.0565   -3.5419  -22.4543 S   0  0  1  0  0  0  0  0  0  0  0  0
  -24.4990   -2.1840  -30.4577 H   0  0  0  0  0  0  0  0  0  0  0  0
  -21.2706   -2.7291  -23.2155 H   0  0  0  0  0  0  0  0  0  0  0  0
  -23.0092   -6.0109  -25.4142 H   0  0  0  0  0  0  0  0  0  0  0  0
  -23.0373   -2.6996  -28.5329 H   0  0  0  0  0  0  0  0  0  0  0  0
  -24.0845   -3.2359  -32.6553 H   0  0  0  0  0  0  0  0  0  0  0  0
  -23.4476   -2.2692  -22.1816 H   0  0  0  0  0  0  0  0  0  0  0  0
  -25.1857   -5.5504  -24.3794 H   0  0  0  0  0  0  0  0  0  0  0  0
  -20.7122   -5.3455  -31.0084 H   0  0  0  0  0  0  0  0  0  0  0  0
  -19.2815   -5.1322  -23.3739 H   0  0  0  0  0  0  0  0  0  0  0  0
  -17.6283   -5.2280  -28.0496 H   0  0  0  0  0  0  0  0  0  0  0  0
  -19.1834   -4.7122  -29.9013 H   0  0  0  0  0  0  0  0  0  0  0  0
  -21.6083   -7.7320  -34.5664 H   0  0  0  0  0  0  0  0  0  0  0  0
  -20.0049   -7.8960  -33.8747 H   0  0  0  0  0  0  0  0  0  0  0  0
  -18.2870   -5.8129  -34.3146 H   0  0  0  0  0  0  0  0  0  0  0  0
  -18.9219   -4.4765  -35.2570 H   0  0  0  0  0  0  0  0  0  0  0  0
  -20.1358   -9.2408  -35.9157 H   0  0  0  0  0  0  0  0  0  0  0  0
  -20.7484   -7.8591  -36.8305 H   0  0  0  0  0  0  0  0  0  0  0  0
  -19.0721   -5.8317  -37.2601 H   0  0  0  0  0  0  0  0  0  0  0  0
  -17.4395   -5.9789  -36.6035 H   0  0  0  0  0  0  0  0  0  0  0  0
  -21.0789   -5.5668  -35.5478 H   0  0  0  0  0  0  0  0  0  0  0  0
  -17.9592   -8.1650  -35.6165 H   0  0  0  0  0  0  0  0  0  0  0  0
  -17.6886  -10.0902  -38.4733 H   0  0  0  0  0  0  0  0  0  0  0  0
  -18.7804  -10.2428  -37.0616 H   0  0  0  0  0  0  0  0  0  0  0  0
  -17.0780   -9.7646  -36.8300 H   0  0  0  0  0  0  0  0  0  0  0  0
  -27.6702   -2.0418  -23.4182 H   0  0  0  0  0  0  0  0  0  0  0  0
  -26.7122   -2.8860  -24.6694 H   0  0  0  0  0  0  0  0  0  0  0  0
  -25.9924   -1.5269  -23.7589 H   0  0  0  0  0  0  0  0  0  0  0  0
  -20.0758   -5.1585  -32.8703 H   0  0  0  0  0  0  0  0  0  0  0  0
  1  4  2  0  0  0  0
  1  5  1  0  0  0  0
  2  6  1  0  0  0  0
  2 10  2  0  0  0  0
  3  7  2  0  0  0  0
  3 10  1  0  0  0  0
  4 11  1  0  0  0  0
  5 12  2  0  0  0  0
  6 13  2  0  0  0  0
  7 13  1  0  0  0  0
  8 11  2  0  0  0  0
  8 12  1  0  0  0  0
  9 14  2  0  0  0  0
  9 28  1  0  0  0  0
 10 14  1  0  0  0  0
 11 18  1  0  0  0  0
 12 19  1  0  0  0  0
 13 35  1  0  0  0  0
 14 30  1  0  0  0  0
 15 16  1  0  0  0  0
 15 28  2  0  0  0  0
 15 30  1  0  0  0  0
 16 17  2  0  0  0  0
 17 18  1  0  0  0  0
 18 29  2  0  0  0  0
 19 31  1  0  0  0  0
 19 32  2  0  0  0  0
 20 22  1  0  0  0  0
 20 24  1  0  0  0  0
 21 23  1  0  0  0  0
 21 24  1  0  0  0  0
 22 25  1  0  0  0  0
 23 25  1  0  0  0  0
 24 31  1  0  0  0  0
 25 34  1  0  0  0  0
 26 34  1  0  0  0  0
 27 35  1  0  0  0  0
 29 30  1  0  0  0  0
 33 35  2  0  0  0  0
  1 36  1  0  0  0  0
  2 37  1  0  0  0  0
  3 38  1  0  0  0  0
  4 39  1  0  0  0  0
  5 40  1  0  0  0  0
  6 41  1  0  0  0  0
  7 42  1  0  0  0  0
  8 43  1  0  0  0  0
  9 44  1  0  0  0  0
 16 45  1  0  0  0  0
 17 46  1  0  0  0  0
 20 47  1  0  0  0  0
 20 48  1  0  0  0  0
 21 49  1  0  0  0  0
 21 50  1  0  0  0  0
 22 51  1  0  0  0  0
 22 52  1  0  0  0  0
 23 53  1  0  0  0  0
 23 54  1  0  0  0  0
 24 55  1  0  0  0  0
 25 56  1  0  0  0  0
 26 57  1  0  0  0  0
 26 58  1  0  0  0  0
 26 59  1  0  0  0  0
 27 60  1  0  0  0  0
 27 61  1  0  0  0  0
 27 62  1  0  0  0  0
 31 63  1  0  0  0  0
M  END
> <SMILES>
COC1CCC(CC1)NC(=O)c1cccc(c1)-c1ccc2ncc(n2n1)-c1ccc(cc1)S(=O)C

> <FORMATTED_ID>
H3D-005476

> <MOLFORMULA>
C27H28N4O3S

> <Exact Mass>
488.19

> <XLogP>
3.82

> <TPSA_NOPS>
104.8

> <s_m_source_file>
ligprep_h3d.sdf

> <i_m_source_file_index>
2387

> <i_lp_mmshare_version>
55123

> <i_f3d_flags>
0

> <s_epik_input>
W0NIM11PW0NAQEhdMVtDSDJdW0NIMl1bQ0BIXShbQ0gyXVtDSDJdMSlbTkhdQyg9TyljMltjSF1bY0hdW2NIXWMoW2NIXTIpLWMoW2NIXVtjSF0zKW5uKGMzNCljKFtjSF1uNCktYzVbY0hdW2NIXWMoW2NIXVtjSF01KVtTQF0oPU8pW0NIM10=

> <s_epik_cmdline>
J2VwaWtfcHl0aG9uJywgJy1waHQnLCAnMC41JywgJy1waCcsICc3LjUnLCAnLXRuJywgJzgnLCAnLW1hJywgJzUwMCcsICctaW1hZScsICc8aW5maWxlLm1hZT4nLCAnLW9tYWUnLCAnPG91dGZpbGUubWFlPic=

> <r_lp_tautomer_probability>
1

> <r_epik_Ionization_Penalty>
0.000169078

> <r_epik_Ionization_Penalty_Charging>
0

> <r_epik_Ionization_Penalty_Neutral>
0.000169078

> <r_epik_State_Penalty>
-0

> <r_epik_Charging_Adjusted_Penalty>
0

> <i_epik_Tot_Q>
0

> <i_epik_Tot_abs_Q>
0

> <s_lp_Force_Field>
S-OPLS

> <r_lp_Energy>
53.5911

> <b_lp_Chiralities_Consistent>
1

> <s_lp_Variant>
ligprep_h3d.sdf:2387-1

> <ROCS_ShapeQuery>
_7L13

> <ROCS_TanimotoCombo>
0.784 

> <ROCS_ShapeTanimoto>
0.673 

> <ROCS_ColorTanimoto>
0.111 

> <ROCS_RefTversky>
0.789 

> <ROCS_RefColorTversky>
0.219 

> <ROCS_RefTverskyCombo>
1.008 

> <ROCS_FitTversky>
0.821 

> <ROCS_FitColorTversky>
0.183 

> <ROCS_FitTverskyCombo>
1.004 

> <ROCS_ColorScore>
-1.997

> <ROCS_Overlap>
1306.989

> <ROCS_Rank>
272                 

$$$$
ligprep_h3d.sdf:1129_802
  -OEChem-08212117123D

 73 77  0     0  0  0  0  0  0999 V2000
  -19.6373   -3.8908  -32.1420 C   0  0  0  0  0  0  0  0  0  0  0  0
  -20.2295   -6.2290  -32.0047 C   0  0  0  0  0  0  0  0  0  0  0  0
  -19.0298   -4.1171  -33.3770 C   0  0  0  0  0  0  0  0  0  0  0  0
  -19.6220   -6.4554  -33.2398 C   0  0  0  0  0  0  0  0  0  0  0  0
  -16.8417   -6.1371  -26.2622 C   0  0  0  0  0  0  0  0  0  0  0  0
  -22.8331   -4.1382  -28.8873 C   0  0  0  0  0  0  0  0  0  0  0  0
  -20.7050   -4.4681  -25.3330 C   0  0  0  0  0  0  0  0  0  0  0  0
  -16.6424   -4.7464  -26.3519 C   0  0  0  0  0  0  0  0  0  0  0  0
  -20.7676   -4.5943  -27.7465 C   0  0  0  0  0  0  0  0  0  0  0  0
  -20.2371   -4.9468  -31.4558 C   0  0  0  0  0  0  0  0  0  0  0  0
  -20.8700   -4.7109  -30.1688 C   0  0  0  0  0  0  0  0  0  0  0  0
  -19.0222   -5.3993  -33.9260 C   0  0  0  0  0  0  0  0  0  0  0  0
  -22.2152   -4.3672  -30.1192 C   0  0  0  0  0  0  0  0  0  0  0  0
  -20.1459   -4.8246  -28.9855 C   0  0  0  0  0  0  0  0  0  0  0  0
  -22.1331   -4.2452  -27.6886 C   0  0  0  0  0  0  0  0  0  0  0  0
  -20.0624   -4.7018  -26.5402 C   0  0  0  0  0  0  0  0  0  0  0  0
  -22.0429   -4.1320  -25.3769 C   0  0  0  0  0  0  0  0  0  0  0  0
  -18.2048   -6.2934  -26.3246 C   0  0  0  0  0  0  0  0  0  0  0  0
  -19.5939   -7.5125  -36.4198 C   0  0  0  0  0  0  0  0  0  0  0  0
  -22.7758   -3.8759  -24.1489 C   0  0  0  0  0  0  0  0  0  0  0  0
  -20.6986   -7.5789  -37.4482 C   0  0  0  0  0  0  0  0  0  0  0  0
  -20.6386   -6.2114  -38.1181 C   0  0  0  0  0  0  0  0  0  0  0  0
  -20.1265   -5.2934  -37.0263 C   0  0  0  0  0  0  0  0  0  0  0  0
  -23.0393   -4.2302  -31.3601 C   0  0  0  0  0  0  0  0  0  0  0  0
  -18.6962   -5.1995  -29.1177 C   0  0  0  0  0  0  0  0  0  0  0  0
  -19.0340   -7.5138  -26.2815 C   0  0  0  0  0  0  0  0  0  0  0  0
  -25.6682   -7.8390  -21.6503 C   0  0  0  0  0  0  0  0  0  0  0  0
  -18.3725   -5.6414  -35.2463 C   0  0  0  0  0  0  0  0  0  0  0  0
  -25.0118   -3.9535  -23.0152 C   0  0  0  0  0  0  0  0  0  0  0  0
  -25.0738   -5.1607  -22.0992 C   0  0  0  0  0  0  0  0  0  0  0  0
  -17.7874   -4.0676  -26.4630 N   0  0  0  0  0  0  0  0  0  0  0  0
  -22.7594   -4.0177  -26.5186 N   0  0  0  0  0  0  0  0  0  0  0  0
  -18.7192   -5.0358  -26.4436 N   0  0  0  0  0  0  0  0  0  0  0  0
  -19.2982   -6.1650  -36.2272 N   0  0  0  0  0  0  0  0  0  0  0  0
  -24.1441   -4.1738  -24.1498 N   0  0  0  0  0  0  0  0  0  0  0  0
  -19.1118   -8.4818  -35.8532 O   0  0  0  0  0  0  0  0  0  0  0  0
  -22.1996   -3.3930  -23.1570 O   0  0  0  0  0  0  0  0  0  0  0  0
  -27.1217   -6.3368  -23.2197 O   0  0  0  0  0  0  0  0  0  0  0  0
  -24.7944   -6.9771  -23.9581 O   0  0  0  0  0  0  0  0  0  0  0  0
  -25.7240   -6.5871  -22.9118 S   0  0  0  0  0  0  0  0  0  0  0  0
  -19.6344   -2.8856  -31.7270 H   0  0  0  0  0  0  0  0  0  0  0  0
  -20.6934   -7.0623  -31.4824 H   0  0  0  0  0  0  0  0  0  0  0  0
  -18.5640   -3.2887  -33.9041 H   0  0  0  0  0  0  0  0  0  0  0  0
  -19.6212   -7.4576  -33.6604 H   0  0  0  0  0  0  0  0  0  0  0  0
  -16.0991   -6.9157  -26.1662 H   0  0  0  0  0  0  0  0  0  0  0  0
  -23.8886   -3.8696  -28.8634 H   0  0  0  0  0  0  0  0  0  0  0  0
  -20.1819   -4.5447  -24.3838 H   0  0  0  0  0  0  0  0  0  0  0  0
  -15.7106   -4.1994  -26.3411 H   0  0  0  0  0  0  0  0  0  0  0  0
  -20.5239   -8.3888  -38.1605 H   0  0  0  0  0  0  0  0  0  0  0  0
  -21.6514   -7.7307  -36.9315 H   0  0  0  0  0  0  0  0  0  0  0  0
  -19.9262   -6.2371  -38.9518 H   0  0  0  0  0  0  0  0  0  0  0  0
  -21.6104   -5.8989  -38.5106 H   0  0  0  0  0  0  0  0  0  0  0  0
  -19.5399   -4.4624  -37.4268 H   0  0  0  0  0  0  0  0  0  0  0  0
  -20.9374   -4.9132  -36.3973 H   0  0  0  0  0  0  0  0  0  0  0  0
  -22.9943   -3.2007  -31.7313 H   0  0  0  0  0  0  0  0  0  0  0  0
  -22.6813   -4.9037  -32.1472 H   0  0  0  0  0  0  0  0  0  0  0  0
  -24.0870   -4.4892  -31.1678 H   0  0  0  0  0  0  0  0  0  0  0  0
  -18.5912   -6.2870  -29.0916 H   0  0  0  0  0  0  0  0  0  0  0  0
  -18.2836   -4.8229  -30.0577 H   0  0  0  0  0  0  0  0  0  0  0  0
  -18.1086   -4.7640  -28.3046 H   0  0  0  0  0  0  0  0  0  0  0  0
  -19.3125   -7.7685  -25.2458 H   0  0  0  0  0  0  0  0  0  0  0  0
  -19.9660   -7.4015  -26.8612 H   0  0  0  0  0  0  0  0  0  0  0  0
  -18.5107   -8.3849  -26.7117 H   0  0  0  0  0  0  0  0  0  0  0  0
  -26.0570   -8.7682  -22.0698 H   0  0  0  0  0  0  0  0  0  0  0  0
  -24.6310   -7.9656  -21.3365 H   0  0  0  0  0  0  0  0  0  0  0  0
  -26.2843   -7.5106  -20.8119 H   0  0  0  0  0  0  0  0  0  0  0  0
  -17.9485   -4.7135  -35.6552 H   0  0  0  0  0  0  0  0  0  0  0  0
  -17.5442   -6.3584  -35.1625 H   0  0  0  0  0  0  0  0  0  0  0  0
  -26.0014   -3.6915  -23.4021 H   0  0  0  0  0  0  0  0  0  0  0  0
  -24.6136   -3.0902  -22.4734 H   0  0  0  0  0  0  0  0  0  0  0  0
  -25.7371   -4.9624  -21.2521 H   0  0  0  0  0  0  0  0  0  0  0  0
  -24.0850   -5.4324  -21.7174 H   0  0  0  0  0  0  0  0  0  0  0  0
  -24.5779   -4.5067  -25.0047 H   0  0  0  0  0  0  0  0  0  0  0  0
  1  3  1  0  0  0  0
  1 10  2  0  0  0  0
  2  4  2  0  0  0  0
  2 10  1  0  0  0  0
  3 12  2  0  0  0  0
  4 12  1  0  0  0  0
  5  8  1  0  0  0  0
  5 18  2  0  0  0  0
  6 13  2  0  0  0  0
  6 15  1  0  0  0  0
  7 16  1  0  0  0  0
  7 17  2  0  0  0  0
  8 31  2  0  0  0  0
  9 14  1  0  0  0  0
  9 15  1  0  0  0  0
  9 16  2  0  0  0  0
 10 11  1  0  0  0  0
 11 13  1  0  0  0  0
 11 14  2  0  0  0  0
 12 28  1  0  0  0  0
 13 24  1  0  0  0  0
 14 25  1  0  0  0  0
 15 32  2  0  0  0  0
 16 33  1  0  0  0  0
 17 20  1  0  0  0  0
 17 32  1  0  0  0  0
 18 26  1  0  0  0  0
 18 33  1  0  0  0  0
 19 21  1  0  0  0  0
 19 34  1  0  0  0  0
 19 36  2  0  0  0  0
 20 35  1  0  0  0  0
 20 37  2  0  0  0  0
 21 22  1  0  0  0  0
 22 23  1  0  0  0  0
 23 34  1  0  0  0  0
 27 40  1  0  0  0  0
 28 34  1  0  0  0  0
 29 30  1  0  0  0  0
 29 35  1  0  0  0  0
 30 40  1  0  0  0  0
 31 33  1  0  0  0  0
 38 40  2  0  0  0  0
 39 40  2  0  0  0  0
  1 41  1  0  0  0  0
  2 42  1  0  0  0  0
  3 43  1  0  0  0  0
  4 44  1  0  0  0  0
  5 45  1  0  0  0  0
  6 46  1  0  0  0  0
  7 47  1  0  0  0  0
  8 48  1  0  0  0  0
 21 49  1  0  0  0  0
 21 50  1  0  0  0  0
 22 51  1  0  0  0  0
 22 52  1  0  0  0  0
 23 53  1  0  0  0  0
 23 54  1  0  0  0  0
 24 55  1  0  0  0  0
 24 56  1  0  0  0  0
 24 57  1  0  0  0  0
 25 58  1  0  0  0  0
 25 59  1  0  0  0  0
 25 60  1  0  0  0  0
 26 61  1  0  0  0  0
 26 62  1  0  0  0  0
 26 63  1  0  0  0  0
 27 64  1  0  0  0  0
 27 65  1  0  0  0  0
 27 66  1  0  0  0  0
 28 67  1  0  0  0  0
 28 68  1  0  0  0  0
 29 69  1  0  0  0  0
 29 70  1  0  0  0  0
 30 71  1  0  0  0  0
 30 72  1  0  0  0  0
 35 73  1  0  0  0  0
M  END
> <SMILES>
Cc1cc2nc(cc(c2c(c1-c1ccc(cc1)CN1CCCC1=O)C)-n1nccc1C)C(=O)NCCS(=O)(=O)C

> <FORMATTED_ID>
H3D-007232

> <MOLFORMULA>
C30H33N5O4S

> <Exact Mass>
559.23

> <XLogP>
3.84

> <TPSA_NOPS>
122.6

> <s_m_source_file>
ligprep_h3d.sdf

> <i_m_source_file_index>
1129

> <i_lp_mmshare_version>
55123

> <i_f3d_flags>
0

> <s_epik_input>
Tz1TKD1PKShbQ0gzXSlbQ0gyXVtDSDJdW05IXUMoPU8pYyhuMSlbY0hdYygtbjJuW2NIXVtjSF1jMltDSDNdKWMoYzEzKWMoW0NIM10pYyhjKFtDSDNdKVtjSF0zKS1jNFtjSF1bY0hdYyhbY0hdW2NIXTQpW0NIMl1ONVtDSDJdW0NIMl1bQ0gyXUM1PU8=

> <s_epik_cmdline>
J2VwaWtfcHl0aG9uJywgJy1waHQnLCAnMC41JywgJy1waCcsICc3LjUnLCAnLXRuJywgJzgnLCAnLW1hJywgJzUwMCcsICctaW1hZScsICc8aW5maWxlLm1hZT4nLCAnLW9tYWUnLCAnPG91dGZpbGUubWFlPic=

> <r_lp_tautomer_probability>
1

> <r_epik_Ionization_Penalty>
2.2095e-05

> <r_epik_Ionization_Penalty_Charging>
0

> <r_epik_Ionization_Penalty_Neutral>
2.2095e-05

> <r_epik_State_Penalty>
-0

> <r_epik_Charging_Adjusted_Penalty>
0

> <i_epik_Tot_Q>
0

> <i_epik_Tot_abs_Q>
0

> <s_lp_Force_Field>
S-OPLS

> <r_lp_Energy>
29.2795

> <b_lp_Chiralities_Consistent>
1

> <s_lp_Variant>
ligprep_h3d.sdf:1129-1

> <ROCS_ShapeQuery>
_7L13

> <ROCS_TanimotoCombo>
0.712 

> <ROCS_ShapeTanimoto>
0.605 

> <ROCS_ColorTanimoto>
0.106 

> <ROCS_RefTversky>
0.789 

> <ROCS_RefColorTversky>
0.221 

> <ROCS_RefTverskyCombo>
1.009 

> <ROCS_FitTversky>
0.722 

> <ROCS_FitColorTversky>
0.170 

> <ROCS_FitTverskyCombo>
0.893 

> <ROCS_ColorScore>
-2.019

> <ROCS_Overlap>
1316.527

> <ROCS_Rank>
273                 

$$$$
ligprep_h3d.sdf:4901_1740
  -OEChem-08212117123D

 61 65  0     1  0  0  0  0  0999 V2000
  -17.1112   -6.3595  -26.0682 C   0  0  0  0  0  0  0  0  0  0  0  0
  -16.9039   -4.0185  -25.5081 C   0  0  0  0  0  0  0  0  0  0  0  0
  -23.4000   -4.3269  -24.2362 C   0  0  0  0  0  0  0  0  0  0  0  0
  -25.7642   -4.2886  -24.7325 C   0  0  0  0  0  0  0  0  0  0  0  0
  -15.8610   -6.6060  -25.5009 C   0  0  0  0  0  0  0  0  0  0  0  0
  -15.6537   -4.2650  -24.9407 C   0  0  0  0  0  0  0  0  0  0  0  0
  -23.6757   -4.8201  -22.9609 C   0  0  0  0  0  0  0  0  0  0  0  0
  -26.0399   -4.7818  -23.4572 C   0  0  0  0  0  0  0  0  0  0  0  0
  -20.0218   -4.1644  -34.1297 C   0  0  0  0  0  0  0  0  0  0  0  0
  -20.4072   -6.0535  -32.6738 C   0  0  0  0  0  0  0  0  0  0  0  0
  -20.4619   -4.6799  -32.9107 C   0  0  0  0  0  0  0  0  0  0  0  0
  -17.6326   -5.0657  -26.0718 C   0  0  0  0  0  0  0  0  0  0  0  0
  -24.4443   -4.0611  -25.1220 C   0  0  0  0  0  0  0  0  0  0  0  0
  -19.4725   -6.3959  -34.8752 C   0  0  0  0  0  0  0  0  0  0  0  0
  -15.1323   -5.5588  -24.9371 C   0  0  0  0  0  0  0  0  0  0  0  0
  -24.9956   -5.0476  -22.5714 C   0  0  0  0  0  0  0  0  0  0  0  0
  -19.5271   -5.0223  -35.1120 C   0  0  0  0  0  0  0  0  0  0  0  0
  -19.9125   -6.9115  -33.6561 C   0  0  0  0  0  0  0  0  0  0  0  0
  -22.0322   -4.4244  -30.9882 C   0  0  0  0  0  0  0  0  0  0  0  0
  -22.6658   -5.0715  -28.6791 C   0  0  0  0  0  0  0  0  0  0  0  0
  -19.8278   -5.6826  -27.2734 C   0  0  0  0  0  0  0  0  0  0  0  0
  -19.7983   -3.7326  -26.4909 C   0  0  0  0  0  0  0  0  0  0  0  0
  -20.5576   -3.9040  -28.9934 C   0  0  0  0  0  0  0  0  0  0  0  0
  -22.1876   -4.6095  -27.3063 C   0  0  1  0  0  0  0  0  0  0  0  0
  -20.6882   -4.4188  -27.5561 C   0  0  0  0  0  0  0  0  0  0  0  0
  -20.9941   -3.7573  -31.8548 C   0  0  0  0  0  0  0  0  0  0  0  0
  -22.8593   -3.3014  -26.8930 C   0  0  0  0  0  0  0  0  0  0  0  0
  -18.8891   -4.8180  -26.6420 N   0  0  0  0  0  0  0  0  0  0  0  0
  -21.7522   -4.4524  -29.6313 N   0  0  0  0  0  0  0  0  0  0  0  0
  -24.1682   -3.5671  -26.3990 N   0  0  0  0  0  0  0  0  0  0  0  0
  -23.0478   -4.9063  -31.4930 O   0  0  0  0  0  0  0  0  0  0  0  0
  -18.9897   -7.2329  -35.8335 O   0  0  0  0  0  0  0  0  0  0  0  0
  -13.9317   -5.7954  -24.3923 F   0  0  0  0  0  0  0  0  0  0  0  0
  -25.2604   -5.5212  -21.3468 F   0  0  0  0  0  0  0  0  0  0  0  0
  -19.1056   -4.5211  -36.2812 F   0  0  0  0  0  0  0  0  0  0  0  0
  -19.8631   -8.2302  -33.4230 F   0  0  0  0  0  0  0  0  0  0  0  0
  -17.6707   -7.1830  -26.5045 H   0  0  0  0  0  0  0  0  0  0  0  0
  -17.3005   -3.0064  -25.5057 H   0  0  0  0  0  0  0  0  0  0  0  0
  -22.3678   -4.1535  -24.5294 H   0  0  0  0  0  0  0  0  0  0  0  0
  -26.5856   -4.0847  -25.4146 H   0  0  0  0  0  0  0  0  0  0  0  0
  -15.4548   -7.6132  -25.4976 H   0  0  0  0  0  0  0  0  0  0  0  0
  -15.0857   -3.4500  -24.5019 H   0  0  0  0  0  0  0  0  0  0  0  0
  -22.8630   -5.0273  -22.2711 H   0  0  0  0  0  0  0  0  0  0  0  0
  -27.0674   -4.9589  -23.1533 H   0  0  0  0  0  0  0  0  0  0  0  0
  -20.0604   -3.0958  -34.3234 H   0  0  0  0  0  0  0  0  0  0  0  0
  -20.7482   -6.4645  -31.7275 H   0  0  0  0  0  0  0  0  0  0  0  0
  -22.5498   -6.1562  -28.7890 H   0  0  0  0  0  0  0  0  0  0  0  0
  -23.7051   -4.8127  -28.9047 H   0  0  0  0  0  0  0  0  0  0  0  0
  -20.2603   -6.4061  -26.5734 H   0  0  0  0  0  0  0  0  0  0  0  0
  -19.4155   -6.2066  -28.1398 H   0  0  0  0  0  0  0  0  0  0  0  0
  -19.3658   -2.7675  -26.7666 H   0  0  0  0  0  0  0  0  0  0  0  0
  -20.2208   -3.6845  -25.4817 H   0  0  0  0  0  0  0  0  0  0  0  0
  -20.6223   -2.8119  -29.0427 H   0  0  0  0  0  0  0  0  0  0  0  0
  -19.6516   -4.2374  -29.5074 H   0  0  0  0  0  0  0  0  0  0  0  0
  -22.3906   -5.3686  -26.5429 H   0  0  0  0  0  0  0  0  0  0  0  0
  -20.1812   -3.4071  -31.2162 H   0  0  0  0  0  0  0  0  0  0  0  0
  -21.4405   -2.8696  -32.3055 H   0  0  0  0  0  0  0  0  0  0  0  0
  -22.2405   -2.8521  -26.1184 H   0  0  0  0  0  0  0  0  0  0  0  0
  -22.9039   -2.6685  -27.7775 H   0  0  0  0  0  0  0  0  0  0  0  0
  -24.9737   -3.3897  -27.0048 H   0  0  0  0  0  0  0  0  0  0  0  0
  -19.0156   -8.1517  -35.5219 H   0  0  0  0  0  0  0  0  0  0  0  0
  1  5  1  0  0  0  0
  1 12  2  0  0  0  0
  2  6  2  0  0  0  0
  2 12  1  0  0  0  0
  3  7  1  0  0  0  0
  3 13  2  0  0  0  0
  4  8  2  0  0  0  0
  4 13  1  0  0  0  0
  5 15  2  0  0  0  0
  6 15  1  0  0  0  0
  7 16  2  0  0  0  0
  8 16  1  0  0  0  0
  9 11  2  0  0  0  0
  9 17  1  0  0  0  0
 10 11  1  0  0  0  0
 10 18  2  0  0  0  0
 11 26  1  0  0  0  0
 12 28  1  0  0  0  0
 13 30  1  0  0  0  0
 14 17  2  0  0  0  0
 14 18  1  0  0  0  0
 14 32  1  0  0  0  0
 15 33  1  0  0  0  0
 16 34  1  0  0  0  0
 17 35  1  0  0  0  0
 18 36  1  0  0  0  0
 19 26  1  0  0  0  0
 19 29  1  0  0  0  0
 19 31  2  0  0  0  0
 20 24  1  0  0  0  0
 20 29  1  0  0  0  0
 21 25  1  0  0  0  0
 21 28  1  0  0  0  0
 22 25  1  0  0  0  0
 22 28  1  0  0  0  0
 23 25  1  0  0  0  0
 23 29  1  0  0  0  0
 24 25  1  0  0  0  0
 24 27  1  0  0  0  0
 27 30  1  0  0  0  0
  1 37  1  0  0  0  0
  2 38  1  0  0  0  0
  3 39  1  0  0  0  0
  4 40  1  0  0  0  0
  5 41  1  0  0  0  0
  6 42  1  0  0  0  0
  7 43  1  0  0  0  0
  8 44  1  0  0  0  0
  9 45  1  0  0  0  0
 10 46  1  0  0  0  0
 20 47  1  0  0  0  0
 20 48  1  0  0  0  0
 21 49  1  0  0  0  0
 21 50  1  0  0  0  0
 22 51  1  0  0  0  0
 22 52  1  0  0  0  0
 23 53  1  0  0  0  0
 23 54  1  0  0  0  0
 24 55  1  0  0  0  0
 26 56  1  0  0  0  0
 26 57  1  0  0  0  0
 27 58  1  0  0  0  0
 27 59  1  0  0  0  0
 30 60  1  0  0  0  0
 32 61  1  0  0  0  0
M  END
> <SMILES>
Oc1c(cc(cc1F)CC(=O)N1CC(CNc2ccc(cc2)F)C2(C1)CN(C2)c1ccc(cc1)F)F

> <FORMATTED_ID>
H3D-008311

> <MOLFORMULA>
C27H25F4N3O2

> <Exact Mass>
499.19

> <XLogP>
4.22

> <TPSA_NOPS>
55.8

> <s_m_source_file>
ligprep_h3d.sdf

> <i_m_source_file_index>
4901

> <i_lp_mmshare_version>
55123

> <i_f3d_flags>
0

> <s_epik_input>
W09IXWMxYyhGKVtjSF1jKFtjSF1jMUYpW0NIMl1DKD1PKU4oW0NIMl0yKVtDSDJdW0NASF0oW0NIMl1bTkhdYzNbY0hdW2NIXWMoRilbY0hdW2NIXTMpQzI0W0NIMl1OKFtDSDJdNCljNVtjSF1bY0hdYyhGKVtjSF1bY0hdNQ==

> <s_epik_cmdline>
J2VwaWtfcHl0aG9uJywgJy1waHQnLCAnMC41JywgJy1waCcsICc3LjUnLCAnLXRuJywgJzgnLCAnLW1hJywgJzUwMCcsICctaW1hZScsICc8aW5maWxlLm1hZT4nLCAnLW9tYWUnLCAnPG91dGZpbGUubWFlPic=

> <r_lp_tautomer_probability>
1

> <r_epik_Ionization_Penalty>
0.636161

> <r_epik_Ionization_Penalty_Charging>
0

> <r_epik_Ionization_Penalty_Neutral>
0.636161

> <r_epik_State_Penalty>
0.649998

> <r_epik_Charging_Adjusted_Penalty>
0.649998

> <i_epik_Tot_Q>
0

> <i_epik_Tot_abs_Q>
0

> <s_lp_Force_Field>
S-OPLS

> <r_lp_Energy>
47.3553

> <b_lp_Chiralities_Consistent>
1

> <s_lp_Variant>
ligprep_h3d.sdf:4901-2

> <ROCS_ShapeQuery>
_7L13

> <ROCS_TanimotoCombo>
0.720 

> <ROCS_ShapeTanimoto>
0.653 

> <ROCS_ColorTanimoto>
0.067 

> <ROCS_RefTversky>
0.789 

> <ROCS_RefColorTversky>
0.125 

> <ROCS_RefTverskyCombo>
0.914 

> <ROCS_FitTversky>
0.792 

> <ROCS_FitColorTversky>
0.125 

> <ROCS_FitTverskyCombo>
0.917 

> <ROCS_ColorScore>
-1.126

> <ROCS_Overlap>
1309.115

> <ROCS_Rank>
274                 

$$$$
ligprep_h3d.sdf:1399_1432
  -OEChem-08212117123D

 67 71  0     0  0  0  0  0  0999 V2000
  -20.2756   -3.9007  -32.2782 C   0  0  0  0  0  0  0  0  0  0  0  0
  -20.6910   -6.2706  -32.0595 C   0  0  0  0  0  0  0  0  0  0  0  0
  -19.7582   -4.1093  -33.5566 C   0  0  0  0  0  0  0  0  0  0  0  0
  -20.1737   -6.4793  -33.3380 C   0  0  0  0  0  0  0  0  0  0  0  0
  -16.8541   -5.8368  -26.6233 C   0  0  0  0  0  0  0  0  0  0  0  0
  -23.1662   -4.3009  -28.7637 C   0  0  0  0  0  0  0  0  0  0  0  0
  -20.7336   -4.4161  -25.3963 C   0  0  0  0  0  0  0  0  0  0  0  0
  -16.7598   -4.4378  -26.7486 C   0  0  0  0  0  0  0  0  0  0  0  0
  -20.9867   -4.5933  -27.7941 C   0  0  0  0  0  0  0  0  0  0  0  0
  -20.7420   -4.9813  -31.5296 C   0  0  0  0  0  0  0  0  0  0  0  0
  -21.2810   -4.7639  -30.1974 C   0  0  0  0  0  0  0  0  0  0  0  0
  -19.7073   -5.3986  -34.0865 C   0  0  0  0  0  0  0  0  0  0  0  0
  -22.6381   -4.5114  -30.0399 C   0  0  0  0  0  0  0  0  0  0  0  0
  -20.4553   -4.8051  -29.0776 C   0  0  0  0  0  0  0  0  0  0  0  0
  -22.3637   -4.3366  -27.6266 C   0  0  0  0  0  0  0  0  0  0  0  0
  -20.1784   -4.6291  -26.6499 C   0  0  0  0  0  0  0  0  0  0  0  0
  -22.0905   -4.1725  -25.3324 C   0  0  0  0  0  0  0  0  0  0  0  0
  -18.2036   -6.0864  -26.5690 C   0  0  0  0  0  0  0  0  0  0  0  0
  -22.7352   -3.9427  -24.0509 C   0  0  0  0  0  0  0  0  0  0  0  0
  -24.3309   -4.8263  -21.5622 C   0  0  0  0  0  0  0  0  0  0  0  0
  -19.0555   -8.2083  -37.0059 C   0  0  0  0  0  0  0  0  0  0  0  0
  -26.3656   -4.0462  -22.8340 C   0  0  0  0  0  0  0  0  0  0  0  0
  -25.5612   -2.8302  -22.4949 C   0  0  0  0  0  0  0  0  0  0  0  0
  -24.8589   -4.1497  -22.7326 C   0  0  0  0  0  0  0  0  0  0  0  0
  -23.5695   -4.4549  -31.2090 C   0  0  0  0  0  0  0  0  0  0  0  0
  -18.9991   -5.0832  -29.3258 C   0  0  0  0  0  0  0  0  0  0  0  0
  -18.9398   -7.3593  -26.4396 C   0  0  0  0  0  0  0  0  0  0  0  0
  -19.1538   -5.6217  -35.4533 C   0  0  0  0  0  0  0  0  0  0  0  0
  -19.5835   -6.8518  -37.4091 C   0  0  0  0  0  0  0  0  0  0  0  0
  -17.9542   -3.8405  -26.7726 N   0  0  0  0  0  0  0  0  0  0  0  0
  -22.9052   -4.1294  -26.4114 N   0  0  0  0  0  0  0  0  0  0  0  0
  -18.8119   -4.8692  -26.6617 N   0  0  0  0  0  0  0  0  0  0  0  0
  -18.4929   -8.8880  -38.0641 N   0  0  0  0  0  0  0  0  0  0  0  0
  -24.0750   -4.3328  -23.9329 N   0  0  0  0  0  0  0  0  0  0  0  0
  -24.1041   -4.0839  -20.5669 O   0  5  0  0  0  0  0  0  0  0  0  0
  -22.1137   -3.4025  -23.1177 O   0  0  0  0  0  0  0  0  0  0  0  0
  -24.1689   -6.0714  -21.6982 O   0  0  0  0  0  0  0  0  0  0  0  0
  -19.1229   -8.6520  -35.8633 O   0  0  0  0  0  0  0  0  0  0  0  0
  -20.1534   -6.2086  -36.2777 O   0  0  0  0  0  0  0  0  0  0  0  0
  -20.3080   -2.8898  -31.8788 H   0  0  0  0  0  0  0  0  0  0  0  0
  -21.0513   -7.1231  -31.4886 H   0  0  0  0  0  0  0  0  0  0  0  0
  -19.3961   -3.2617  -34.1323 H   0  0  0  0  0  0  0  0  0  0  0  0
  -20.1383   -7.4871  -33.7432 H   0  0  0  0  0  0  0  0  0  0  0  0
  -16.0540   -6.5612  -26.5793 H   0  0  0  0  0  0  0  0  0  0  0  0
  -24.2322   -4.1040  -28.6551 H   0  0  0  0  0  0  0  0  0  0  0  0
  -20.1296   -4.4385  -24.4934 H   0  0  0  0  0  0  0  0  0  0  0  0
  -15.8703   -3.8288  -26.8236 H   0  0  0  0  0  0  0  0  0  0  0  0
  -26.9724   -4.4829  -22.0493 H   0  0  0  0  0  0  0  0  0  0  0  0
  -26.8198   -4.0902  -23.8171 H   0  0  0  0  0  0  0  0  0  0  0  0
  -25.4756   -2.0577  -23.2503 H   0  0  0  0  0  0  0  0  0  0  0  0
  -25.6274   -2.4494  -21.4823 H   0  0  0  0  0  0  0  0  0  0  0  0
  -23.6268   -3.4321  -31.5968 H   0  0  0  0  0  0  0  0  0  0  0  0
  -23.2321   -5.1178  -32.0140 H   0  0  0  0  0  0  0  0  0  0  0  0
  -24.5773   -4.7806  -30.9259 H   0  0  0  0  0  0  0  0  0  0  0  0
  -18.8172   -6.1603  -29.2936 H   0  0  0  0  0  0  0  0  0  0  0  0
  -18.6927   -4.6979  -30.3022 H   0  0  0  0  0  0  0  0  0  0  0  0
  -18.3777   -4.5930  -28.5710 H   0  0  0  0  0  0  0  0  0  0  0  0
  -19.1133   -7.6119  -25.3807 H   0  0  0  0  0  0  0  0  0  0  0  0
  -19.9222   -7.3219  -26.9405 H   0  0  0  0  0  0  0  0  0  0  0  0
  -18.3949   -8.2011  -26.9001 H   0  0  0  0  0  0  0  0  0  0  0  0
  -18.8291   -4.6783  -35.9133 H   0  0  0  0  0  0  0  0  0  0  0  0
  -18.2828   -6.2905  -35.4244 H   0  0  0  0  0  0  0  0  0  0  0  0
  -20.3512   -6.9727  -38.1794 H   0  0  0  0  0  0  0  0  0  0  0  0
  -18.7620   -6.2406  -37.7952 H   0  0  0  0  0  0  0  0  0  0  0  0
  -18.4618   -8.4771  -38.9912 H   0  0  0  0  0  0  0  0  0  0  0  0
  -18.0907   -9.8145  -37.9617 H   0  0  0  0  0  0  0  0  0  0  0  0
  -24.5539   -4.7109  -24.7437 H   0  0  0  0  0  0  0  0  0  0  0  0
  1  3  1  0  0  0  0
  1 10  2  0  0  0  0
  2  4  2  0  0  0  0
  2 10  1  0  0  0  0
  3 12  2  0  0  0  0
  4 12  1  0  0  0  0
  5  8  1  0  0  0  0
  5 18  2  0  0  0  0
  6 13  2  0  0  0  0
  6 15  1  0  0  0  0
  7 16  1  0  0  0  0
  7 17  2  0  0  0  0
  8 30  2  0  0  0  0
  9 14  1  0  0  0  0
  9 15  1  0  0  0  0
  9 16  2  0  0  0  0
 10 11  1  0  0  0  0
 11 13  1  0  0  0  0
 11 14  2  0  0  0  0
 12 28  1  0  0  0  0
 13 25  1  0  0  0  0
 14 26  1  0  0  0  0
 15 31  2  0  0  0  0
 16 32  1  0  0  0  0
 17 19  1  0  0  0  0
 17 31  1  0  0  0  0
 18 27  1  0  0  0  0
 18 32  1  0  0  0  0
 19 34  1  0  0  0  0
 19 36  2  0  0  0  0
 20 24  1  0  0  0  0
 20 35  1  0  0  0  0
 20 37  2  0  0  0  0
 21 29  1  0  0  0  0
 21 33  1  0  0  0  0
 21 38  2  0  0  0  0
 22 23  1  0  0  0  0
 22 24  1  0  0  0  0
 23 24  1  0  0  0  0
 24 34  1  0  0  0  0
 28 39  1  0  0  0  0
 29 39  1  0  0  0  0
 30 32  1  0  0  0  0
  1 40  1  0  0  0  0
  2 41  1  0  0  0  0
  3 42  1  0  0  0  0
  4 43  1  0  0  0  0
  5 44  1  0  0  0  0
  6 45  1  0  0  0  0
  7 46  1  0  0  0  0
  8 47  1  0  0  0  0
 22 48  1  0  0  0  0
 22 49  1  0  0  0  0
 23 50  1  0  0  0  0
 23 51  1  0  0  0  0
 25 52  1  0  0  0  0
 25 53  1  0  0  0  0
 25 54  1  0  0  0  0
 26 55  1  0  0  0  0
 26 56  1  0  0  0  0
 26 57  1  0  0  0  0
 27 58  1  0  0  0  0
 27 59  1  0  0  0  0
 27 60  1  0  0  0  0
 28 61  1  0  0  0  0
 28 62  1  0  0  0  0
 29 63  1  0  0  0  0
 29 64  1  0  0  0  0
 33 65  1  0  0  0  0
 33 66  1  0  0  0  0
 34 67  1  0  0  0  0
M  CHG  1  35  -1
M  END
> <SMILES>
Cc1cc2nc(cc(c2c(c1-c1ccc(cc1)COCC(=O)N)C)-n1nccc1C)C(=O)NC1(CC1)C(=O)O

> <FORMATTED_ID>
H3D-009419

> <MOLFORMULA>
C29H29N5O5

> <Exact Mass>
527.22

> <XLogP>
0.55

> <TPSA_NOPS>
149.4

> <s_m_source_file>
ligprep_h3d.sdf

> <i_m_source_file_index>
1399

> <i_lp_mmshare_version>
55123

> <i_f3d_flags>
0

> <s_epik_input>
Tz1DKFtOSDJdKVtDSDJdT1tDSDJdYyhbY0hdW2NIXTEpW2NIXVtjSF1jMS1jKGMoW0NIM10pW2NIXTIpYyhbQ0gzXSljKGMyMyljKC1uNG5bY0hdW2NIXWM0W0NIM10pW2NIXWMobjMpQyg9TylbTkhdQzUoW0NIMl1bQ0gyXTUpQyg9TylbT0hd

> <s_epik_cmdline>
J2VwaWtfcHl0aG9uJywgJy1waHQnLCAnMC41JywgJy1waCcsICc3LjUnLCAnLXRuJywgJzgnLCAnLW1hJywgJzUwMCcsICctaW1hZScsICc8aW5maWxlLm1hZT4nLCAnLW9tYWUnLCAnPG91dGZpbGUubWFlPic=

> <r_lp_tautomer_probability>
1

> <r_epik_Ionization_Penalty>
0.000145174

> <r_epik_Ionization_Penalty_Charging>
0.000123838

> <r_epik_Ionization_Penalty_Neutral>
2.13363e-05

> <r_epik_State_Penalty>
-0

> <r_epik_Charging_Adjusted_Penalty>
0.000123838

> <i_epik_Tot_Q>
-1

> <i_epik_Tot_abs_Q>
1

> <s_lp_Force_Field>
S-OPLS

> <r_lp_Energy>
75.2791

> <b_lp_Chiralities_Consistent>
1

> <s_lp_Variant>
ligprep_h3d.sdf:1399-1

> <ROCS_ShapeQuery>
_7L13

> <ROCS_TanimotoCombo>
0.706 

> <ROCS_ShapeTanimoto>
0.609 

> <ROCS_ColorTanimoto>
0.097 

> <ROCS_RefTversky>
0.788 

> <ROCS_RefColorTversky>
0.220 

> <ROCS_RefTverskyCombo>
1.008 

> <ROCS_FitTversky>
0.728 

> <ROCS_FitColorTversky>
0.148 

> <ROCS_FitTverskyCombo>
0.875 

> <ROCS_ColorScore>
-2.031

> <ROCS_Overlap>
1315.234

> <ROCS_Rank>
275                 

$$$$
ligprep_h3d.sdf:5173_690
  -OEChem-08212117123D

 68 73  0     1  0  0  0  0  0999 V2000
  -15.9759   -4.5015  -24.1713 C   0  0  0  0  0  0  0  0  0  0  0  0
  -25.1767   -4.2227  -22.7136 C   0  0  0  0  0  0  0  0  0  0  0  0
  -19.5953   -8.7292  -38.5648 C   0  0  0  0  0  0  0  0  0  0  0  0
  -16.3646   -3.4187  -24.9600 C   0  0  0  0  0  0  0  0  0  0  0  0
  -16.5427   -5.7582  -24.3837 C   0  0  0  0  0  0  0  0  0  0  0  0
  -23.8984   -3.7553  -23.0182 C   0  0  0  0  0  0  0  0  0  0  0  0
  -25.8711   -5.0058  -23.6357 C   0  0  0  0  0  0  0  0  0  0  0  0
  -20.5534   -7.7928  -38.1766 C   0  0  0  0  0  0  0  0  0  0  0  0
  -18.2849   -8.6204  -38.0991 C   0  0  0  0  0  0  0  0  0  0  0  0
  -20.7649   -6.0548  -33.1419 C   0  0  0  0  0  0  0  0  0  0  0  0
  -20.5745   -3.6980  -33.6384 C   0  0  0  0  0  0  0  0  0  0  0  0
  -17.3202   -3.5926  -25.9611 C   0  0  0  0  0  0  0  0  0  0  0  0
  -17.4982   -5.9321  -25.3849 C   0  0  0  0  0  0  0  0  0  0  0  0
  -23.3144   -4.0707  -24.2450 C   0  0  0  0  0  0  0  0  0  0  0  0
  -25.2872   -5.3212  -24.8626 C   0  0  0  0  0  0  0  0  0  0  0  0
  -20.2013   -6.7475  -37.3228 C   0  0  0  0  0  0  0  0  0  0  0  0
  -17.9327   -7.5751  -37.2453 C   0  0  0  0  0  0  0  0  0  0  0  0
  -19.9048   -6.3472  -34.2004 C   0  0  0  0  0  0  0  0  0  0  0  0
  -19.7144   -3.9904  -34.6968 C   0  0  0  0  0  0  0  0  0  0  0  0
  -21.0998   -4.7302  -32.8610 C   0  0  0  0  0  0  0  0  0  0  0  0
  -17.8870   -4.8493  -26.1736 C   0  0  0  0  0  0  0  0  0  0  0  0
  -24.0088   -4.8537  -25.1672 C   0  0  0  0  0  0  0  0  0  0  0  0
  -18.8909   -6.6386  -36.8571 C   0  0  0  0  0  0  0  0  0  0  0  0
  -19.3795   -5.3151  -34.9778 C   0  0  0  0  0  0  0  0  0  0  0  0
  -22.0070   -4.4215  -31.7444 C   0  0  0  0  0  0  0  0  0  0  0  0
  -22.4547   -4.5357  -29.3125 C   0  0  0  0  0  0  0  0  0  0  0  0
  -19.4173   -4.1125  -28.1129 C   0  0  0  0  0  0  0  0  0  0  0  0
  -19.3573   -6.1972  -27.8070 C   0  0  0  0  0  0  0  0  0  0  0  0
  -20.3520   -5.4555  -30.1063 C   0  0  0  0  0  0  0  0  0  0  0  0
  -21.8078   -5.3119  -28.1731 C   0  0  1  0  0  0  0  0  0  0  0  0
  -20.3278   -5.2802  -28.5854 C   0  0  0  0  0  0  0  0  0  0  0  0
  -22.1280   -4.7439  -26.8031 C   0  0  0  0  0  0  0  0  0  0  0  0
  -18.8473   -5.0244  -27.1797 N   0  0  0  0  0  0  0  0  0  0  0  0
  -21.6168   -4.8155  -30.4713 N   0  0  0  0  0  0  0  0  0  0  0  0
  -23.4243   -5.1699  -26.3958 N   0  0  0  0  0  0  0  0  0  0  0  0
  -23.0482   -3.8253  -32.0126 O   0  0  0  0  0  0  0  0  0  0  0  0
  -18.5403   -5.6001  -36.0107 O   0  0  0  0  0  0  0  0  0  0  0  0
  -15.2319   -4.3659  -23.3915 H   0  0  0  0  0  0  0  0  0  0  0  0
  -25.6315   -3.9768  -21.7583 H   0  0  0  0  0  0  0  0  0  0  0  0
  -19.8693   -9.5435  -39.2291 H   0  0  0  0  0  0  0  0  0  0  0  0
  -15.9234   -2.4405  -24.7944 H   0  0  0  0  0  0  0  0  0  0  0  0
  -16.2398   -6.6013  -23.7694 H   0  0  0  0  0  0  0  0  0  0  0  0
  -23.3580   -3.1457  -22.3003 H   0  0  0  0  0  0  0  0  0  0  0  0
  -26.8667   -5.3697  -23.3983 H   0  0  0  0  0  0  0  0  0  0  0  0
  -21.5738   -7.8773  -38.5393 H   0  0  0  0  0  0  0  0  0  0  0  0
  -17.5394   -9.3500  -38.4017 H   0  0  0  0  0  0  0  0  0  0  0  0
  -21.1678   -6.8674  -32.5428 H   0  0  0  0  0  0  0  0  0  0  0  0
  -20.8292   -2.6625  -33.4275 H   0  0  0  0  0  0  0  0  0  0  0  0
  -17.6164   -2.7424  -26.5701 H   0  0  0  0  0  0  0  0  0  0  0  0
  -17.9329   -6.9161  -25.5415 H   0  0  0  0  0  0  0  0  0  0  0  0
  -22.3178   -3.7014  -24.4728 H   0  0  0  0  0  0  0  0  0  0  0  0
  -25.8377   -5.9324  -25.5733 H   0  0  0  0  0  0  0  0  0  0  0  0
  -20.9520   -6.0205  -37.0253 H   0  0  0  0  0  0  0  0  0  0  0  0
  -16.9100   -7.4942  -36.8871 H   0  0  0  0  0  0  0  0  0  0  0  0
  -19.6478   -7.3811  -34.4143 H   0  0  0  0  0  0  0  0  0  0  0  0
  -19.3086   -3.1822  -35.2991 H   0  0  0  0  0  0  0  0  0  0  0  0
  -23.4495   -4.9304  -29.5396 H   0  0  0  0  0  0  0  0  0  0  0  0
  -22.5379   -3.4611  -29.1383 H   0  0  0  0  0  0  0  0  0  0  0  0
  -18.6977   -3.7353  -28.8415 H   0  0  0  0  0  0  0  0  0  0  0  0
  -19.9341   -3.2840  -27.6205 H   0  0  0  0  0  0  0  0  0  0  0  0
  -19.8192   -6.8835  -27.0849 H   0  0  0  0  0  0  0  0  0  0  0  0
  -18.6009   -6.7358  -28.3892 H   0  0  0  0  0  0  0  0  0  0  0  0
  -19.5430   -4.9028  -30.5961 H   0  0  0  0  0  0  0  0  0  0  0  0
  -20.3321   -6.4979  -30.4381 H   0  0  0  0  0  0  0  0  0  0  0  0
  -22.1972   -6.3777  -28.1989 H   0  0  0  0  0  0  0  0  0  0  0  0
  -21.3689   -5.1130  -26.1156 H   0  0  0  0  0  0  0  0  0  0  0  0
  -22.0890   -3.6592  -26.8866 H   0  0  0  0  0  0  0  0  0  0  0  0
  -23.9810   -5.7461  -27.0324 H   0  0  0  0  0  0  0  0  0  0  0  0
  1  4  2  0  0  0  0
  1  5  1  0  0  0  0
  2  6  2  0  0  0  0
  2  7  1  0  0  0  0
  3  8  2  0  0  0  0
  3  9  1  0  0  0  0
  4 12  1  0  0  0  0
  5 13  2  0  0  0  0
  6 14  1  0  0  0  0
  7 15  2  0  0  0  0
  8 16  1  0  0  0  0
  9 17  2  0  0  0  0
 10 18  1  0  0  0  0
 10 20  2  0  0  0  0
 11 19  2  0  0  0  0
 11 20  1  0  0  0  0
 12 21  2  0  0  0  0
 13 21  1  0  0  0  0
 14 22  2  0  0  0  0
 15 22  1  0  0  0  0
 16 23  2  0  0  0  0
 17 23  1  0  0  0  0
 18 24  2  0  0  0  0
 19 24  1  0  0  0  0
 20 25  1  0  0  0  0
 21 33  1  0  0  0  0
 22 35  1  0  0  0  0
 23 37  1  0  0  0  0
 24 37  1  0  0  0  0
 25 34  1  0  0  0  0
 25 36  2  0  0  0  0
 26 30  1  0  0  0  0
 26 34  1  0  0  0  0
 27 31  1  0  0  0  0
 27 33  1  0  0  0  0
 28 31  1  0  0  0  0
 28 33  1  0  0  0  0
 29 31  1  0  0  0  0
 29 34  1  0  0  0  0
 30 31  1  0  0  0  0
 30 32  1  0  0  0  0
 32 35  1  0  0  0  0
  1 38  1  0  0  0  0
  2 39  1  0  0  0  0
  3 40  1  0  0  0  0
  4 41  1  0  0  0  0
  5 42  1  0  0  0  0
  6 43  1  0  0  0  0
  7 44  1  0  0  0  0
  8 45  1  0  0  0  0
  9 46  1  0  0  0  0
 10 47  1  0  0  0  0
 11 48  1  0  0  0  0
 12 49  1  0  0  0  0
 13 50  1  0  0  0  0
 14 51  1  0  0  0  0
 15 52  1  0  0  0  0
 16 53  1  0  0  0  0
 17 54  1  0  0  0  0
 18 55  1  0  0  0  0
 19 56  1  0  0  0  0
 26 57  1  0  0  0  0
 26 58  1  0  0  0  0
 27 59  1  0  0  0  0
 27 60  1  0  0  0  0
 28 61  1  0  0  0  0
 28 62  1  0  0  0  0
 29 63  1  0  0  0  0
 29 64  1  0  0  0  0
 30 65  1  0  0  0  0
 32 66  1  0  0  0  0
 32 67  1  0  0  0  0
 35 68  1  0  0  0  0
M  END
> <SMILES>
O=C(N1CC(CNc2ccccc2)C2(C1)CN(C2)c1ccccc1)c1ccc(cc1)Oc1ccccc1

> <FORMATTED_ID>
H3D-013990

> <MOLFORMULA>
C32H31N3O2

> <Exact Mass>
489.24

> <XLogP>
5.67

> <TPSA_NOPS>
44.8

> <s_m_source_file>
ligprep_h3d.sdf

> <i_m_source_file_index>
5173

> <i_lp_mmshare_version>
55123

> <i_f3d_flags>
0

> <s_epik_input>
W2NIXTFbY0hdW2NIXVtjSF1bY0hdYzFPYyhbY0hdW2NIXTIpW2NIXVtjSF1jMkMoPU8pTihbQ0gyXTMpW0NIMl1bQ0BIXShbQ0gyXVtOSF1jNFtjSF1bY0hdW2NIXVtjSF1bY0hdNClDMzVbQ0gyXU4oW0NIMl01KWM2W2NIXVtjSF1bY0hdW2NIXVtjSF02

> <s_epik_cmdline>
J2VwaWtfcHl0aG9uJywgJy1waHQnLCAnMC41JywgJy1waCcsICc3LjUnLCAnLXRuJywgJzgnLCAnLW1hJywgJzUwMCcsICctaW1hZScsICc8aW5maWxlLm1hZT4nLCAnLW9tYWUnLCAnPG91dGZpbGUubWFlPic=

> <r_lp_tautomer_probability>
1

> <r_epik_Ionization_Penalty>
0.00300665

> <r_epik_Ionization_Penalty_Charging>
0

> <r_epik_Ionization_Penalty_Neutral>
0.00300665

> <r_epik_State_Penalty>
-0

> <r_epik_Charging_Adjusted_Penalty>
0

> <i_epik_Tot_Q>
0

> <i_epik_Tot_abs_Q>
0

> <s_lp_Force_Field>
S-OPLS

> <r_lp_Energy>
54.7989

> <b_lp_Chiralities_Consistent>
1

> <s_lp_Variant>
ligprep_h3d.sdf:5173-1

> <ROCS_ShapeQuery>
_7L13

> <ROCS_TanimotoCombo>
0.696 

> <ROCS_ShapeTanimoto>
0.637 

> <ROCS_ColorTanimoto>
0.059 

> <ROCS_RefTversky>
0.788 

> <ROCS_RefColorTversky>
0.112 

> <ROCS_RefTverskyCombo>
0.900 

> <ROCS_FitTversky>
0.768 

> <ROCS_FitColorTversky>
0.112 

> <ROCS_FitTverskyCombo>
0.880 

> <ROCS_ColorScore>
-1.005

> <ROCS_Overlap>
1311.028

> <ROCS_Rank>
276                 

$$$$
ligprep_h3d.sdf:993_667
  -OEChem-08212117123D

 58 63  0     1  0  0  0  0  0999 V2000
  -20.9714   -5.1276  -29.5119 C   0  0  0  0  0  0  0  0  0  0  0  0
  -21.7561   -4.3657  -30.3817 C   0  0  0  0  0  0  0  0  0  0  0  0
  -21.0442   -4.8654  -28.1237 C   0  0  0  0  0  0  0  0  0  0  0  0
  -21.9208   -3.8872  -27.5849 C   0  0  0  0  0  0  0  0  0  0  0  0
  -22.5717   -3.3894  -29.8511 C   0  0  0  0  0  0  0  0  0  0  0  0
  -22.6825   -3.1122  -28.4892 C   0  0  0  0  0  0  0  0  0  0  0  0
  -21.9836   -4.2745  -31.7678 C   0  0  0  0  0  0  0  0  0  0  0  0
  -18.8676   -3.7759  -26.3051 C   0  0  0  0  0  0  0  0  0  0  0  0
  -19.1582   -5.9780  -24.9953 C   0  0  0  0  0  0  0  0  0  0  0  0
  -16.9175   -5.2100  -25.7411 C   0  0  0  0  0  0  0  0  0  0  0  0
  -19.7195   -7.3983  -35.5757 C   0  0  0  0  0  0  0  0  0  0  0  0
  -20.1548   -5.6826  -27.2124 C   0  0  0  0  0  0  0  0  0  0  0  0
  -23.1085   -2.9264  -25.6191 C   0  0  0  0  0  0  0  0  0  0  0  0
  -20.7551   -8.5053  -33.8759 C   0  0  0  0  0  0  0  0  0  0  0  0
  -21.1633   -4.4701  -25.2755 C   0  0  2  0  0  0  0  0  0  0  0  0
  -20.4652   -7.0932  -33.4105 C   0  0  2  0  0  0  0  0  0  0  0  0
  -23.4522   -3.4852  -24.2366 C   0  0  2  0  0  0  0  0  0  0  0  0
  -21.0659   -3.7530  -23.8982 C   0  0  1  0  0  0  0  0  0  0  0  0
  -19.8112   -4.9244  -25.9025 C   0  0  0  0  0  0  0  0  0  0  0  0
  -24.5965   -2.7035  -23.6015 C   0  0  0  0  0  0  0  0  0  0  0  0
  -20.2303   -2.4788  -23.8311 C   0  0  0  0  0  0  0  0  0  0  0  0
  -21.6470   -6.4167  -32.7443 C   0  0  0  0  0  0  0  0  0  0  0  0
  -22.8662   -3.3194  -32.0754 N   0  0  0  0  0  0  0  0  0  0  0  0
  -17.5171   -4.0887  -26.2945 N   0  0  0  0  0  0  0  0  0  0  0  0
  -17.7811   -6.0835  -25.0980 N   0  0  0  0  0  0  0  0  0  0  0  0
  -20.0633   -6.4603  -34.6268 N   0  0  0  0  0  0  0  0  0  0  0  0
  -21.9953   -3.6818  -26.2034 N   0  0  3  0  0  0  0  0  0  0  0  0
  -19.2630   -2.6752  -26.6895 O   0  0  0  0  0  0  0  0  0  0  0  0
  -19.8105   -6.7393  -24.2794 O   0  0  0  0  0  0  0  0  0  0  0  0
  -15.7003   -5.3965  -25.7835 O   0  0  0  0  0  0  0  0  0  0  0  0
  -19.2195   -7.1843  -36.6709 O   0  0  0  0  0  0  0  0  0  0  0  0
  -23.2350   -2.7583  -30.8584 O   0  0  0  0  0  0  0  0  0  0  0  0
  -20.0112   -8.6518  -35.0980 O   0  0  0  0  0  0  0  0  0  0  0  0
  -22.3472   -3.4185  -23.3424 O   0  0  0  0  0  0  0  0  0  0  0  0
  -21.4414   -4.9949  -32.7586 O   0  0  0  0  0  0  0  0  0  0  0  0
  -23.4606   -2.0941  -28.1000 F   0  0  0  0  0  0  0  0  0  0  0  0
  -20.3075   -5.8964  -29.8972 H   0  0  0  0  0  0  0  0  0  0  0  0
  -20.6735   -6.6259  -26.9934 H   0  0  0  0  0  0  0  0  0  0  0  0
  -19.2307   -5.9475  -27.7442 H   0  0  0  0  0  0  0  0  0  0  0  0
  -24.0203   -3.0197  -26.2187 H   0  0  0  0  0  0  0  0  0  0  0  0
  -22.8277   -1.8689  -25.5576 H   0  0  0  0  0  0  0  0  0  0  0  0
  -20.4055   -9.2513  -33.1561 H   0  0  0  0  0  0  0  0  0  0  0  0
  -21.8125   -8.6857  -34.0970 H   0  0  0  0  0  0  0  0  0  0  0  0
  -21.7473   -5.3848  -25.0868 H   0  0  0  0  0  0  0  0  0  0  0  0
  -19.5967   -7.0808  -32.7422 H   0  0  0  0  0  0  0  0  0  0  0  0
  -23.7665   -4.5335  -24.3189 H   0  0  0  0  0  0  0  0  0  0  0  0
  -20.6257   -4.4528  -23.1783 H   0  0  0  0  0  0  0  0  0  0  0  0
  -24.3203   -1.6539  -23.5030 H   0  0  0  0  0  0  0  0  0  0  0  0
  -24.8183   -3.1057  -22.6133 H   0  0  0  0  0  0  0  0  0  0  0  0
  -25.4883   -2.7785  -24.2233 H   0  0  0  0  0  0  0  0  0  0  0  0
  -20.6225   -1.7407  -24.5298 H   0  0  0  0  0  0  0  0  0  0  0  0
  -19.1957   -2.6995  -24.0915 H   0  0  0  0  0  0  0  0  0  0  0  0
  -20.2628   -2.0664  -22.8233 H   0  0  0  0  0  0  0  0  0  0  0  0
  -21.7438   -6.7483  -31.7061 H   0  0  0  0  0  0  0  0  0  0  0  0
  -22.5726   -6.6445  -33.2811 H   0  0  0  0  0  0  0  0  0  0  0  0
  -16.8962   -3.4206  -26.7428 H   0  0  0  0  0  0  0  0  0  0  0  0
  -17.3490   -6.8548  -24.5968 H   0  0  0  0  0  0  0  0  0  0  0  0
  -20.0350   -5.4559  -34.7722 H   0  0  0  0  0  0  0  0  0  0  0  0
  1  2  2  0  0  0  0
  1  3  1  0  0  0  0
  2  5  1  0  0  0  0
  2  7  1  0  0  0  0
  3  4  2  0  0  0  0
  3 12  1  0  0  0  0
  4  6  1  0  0  0  0
  4 27  1  0  0  0  0
  5  6  2  0  0  0  0
  5 32  1  0  0  0  0
  6 36  1  0  0  0  0
  7 23  2  0  0  0  0
  7 35  1  0  0  0  0
  8 19  1  0  0  0  0
  8 24  1  0  0  0  0
  8 28  2  0  0  0  0
  9 19  1  0  0  0  0
  9 25  1  0  0  0  0
  9 29  2  0  0  0  0
 10 24  1  0  0  0  0
 10 25  1  0  0  0  0
 10 30  2  0  0  0  0
 11 26  1  0  0  0  0
 11 31  2  0  0  0  0
 11 33  1  0  0  0  0
 12 19  1  0  0  0  0
 13 17  1  0  0  0  0
 13 27  1  0  0  0  0
 14 16  1  0  0  0  0
 14 33  1  0  0  0  0
 15 18  1  0  0  0  0
 15 19  1  0  0  0  0
 15 27  1  0  0  0  0
 16 22  1  0  0  0  0
 16 26  1  0  0  0  0
 17 20  1  0  0  0  0
 17 34  1  0  0  0  0
 18 21  1  0  0  0  0
 18 34  1  0  0  0  0
 22 35  1  0  0  0  0
 23 32  1  0  0  0  0
  1 37  1  0  0  0  0
 12 38  1  0  0  0  0
 12 39  1  0  0  0  0
 13 40  1  0  0  0  0
 13 41  1  0  0  0  0
 14 42  1  0  0  0  0
 14 43  1  0  0  0  0
 15 44  1  0  0  0  0
 16 45  1  0  0  0  0
 17 46  1  0  0  0  0
 18 47  1  0  0  0  0
 20 48  1  0  0  0  0
 20 49  1  0  0  0  0
 20 50  1  0  0  0  0
 21 51  1  0  0  0  0
 21 52  1  0  0  0  0
 21 53  1  0  0  0  0
 22 54  1  0  0  0  0
 22 55  1  0  0  0  0
 24 56  1  0  0  0  0
 25 57  1  0  0  0  0
 26 58  1  0  0  0  0
M  END
> <SMILES>
C[C@H]1CN2[C@H]([C@@H](C)O1)C1(Cc3cc4c(noc4c(c32)F)OC[C@H]2COC(=O)N2)C(=O)NC(=O)NC1=O

> <FORMATTED_ID>
H3D-006113

> <MOLFORMULA>
C22H22FN5O8

> <Exact Mass>
503.15

> <XLogP>
-0.35

> <TPSA_NOPS>
161.6

> <s_m_source_file>
ligprep_h3d.sdf

> <i_m_source_file_index>
993

> <i_lp_mmshare_version>
55123

> <i_f3d_flags>
0

> <s_epik_input>
Tz1DMVtOSF1DKD1PKVtOSF1DKD1PKUMxMltDQEBIXTNOKFtDSDJdW0NASF0oW0NIM10pT1tDQEBIXTNbQ0gzXSljNGMoW0NIMl0yKVtjSF1jNWMoYzRGKW9uYzVPW0NIMl1bQ0BIXTZbQ0gyXU9DKD1PKVtOSF02

> <s_epik_cmdline>
J2VwaWtfcHl0aG9uJywgJy1waHQnLCAnMC41JywgJy1waCcsICc3LjUnLCAnLXRuJywgJzgnLCAnLW1hJywgJzUwMCcsICctaW1hZScsICc8aW5maWxlLm1hZT4nLCAnLW9tYWUnLCAnPG91dGZpbGUubWFlPic=

> <r_lp_tautomer_probability>
1

> <r_epik_Ionization_Penalty>
0.369129

> <r_epik_Ionization_Penalty_Charging>
0

> <r_epik_Ionization_Penalty_Neutral>
0.369129

> <r_epik_State_Penalty>
0.366447

> <r_epik_Charging_Adjusted_Penalty>
0.366447

> <i_epik_Tot_Q>
0

> <i_epik_Tot_abs_Q>
0

> <s_epik_Chemistry_Notes>
This compound has an ester and may undergo hydrolysis at high or low pH.

> <s_lp_Force_Field>
S-OPLS

> <r_lp_Energy>
39.1477

> <b_lp_Chiralities_Consistent>
1

> <s_lp_Variant>
ligprep_h3d.sdf:993-1

> <ROCS_ShapeQuery>
_7L13

> <ROCS_TanimotoCombo>
0.759 

> <ROCS_ShapeTanimoto>
0.636 

> <ROCS_ColorTanimoto>
0.123 

> <ROCS_RefTversky>
0.788 

> <ROCS_RefColorTversky>
0.293 

> <ROCS_RefTverskyCombo>
1.081 

> <ROCS_FitTversky>
0.767 

> <ROCS_FitColorTversky>
0.174 

> <ROCS_FitTverskyCombo>
0.941 

> <ROCS_ColorScore>
-2.736

> <ROCS_Overlap>
1311.032

> <ROCS_Rank>
277                 

$$$$
ligprep_h3d.sdf:892_1616
  -OEChem-08212117123D

 62 65  0     0  0  0  0  0  0999 V2000
  -16.3446   -3.8549  -26.7742 C   0  0  0  0  0  0  0  0  0  0  0  0
  -15.8096   -5.1360  -26.6391 C   0  0  0  0  0  0  0  0  0  0  0  0
  -17.7278   -3.6753  -26.7948 C   0  0  0  0  0  0  0  0  0  0  0  0
  -16.6577   -6.2375  -26.5248 C   0  0  0  0  0  0  0  0  0  0  0  0
  -20.5924   -4.3763  -25.4577 C   0  0  0  0  0  0  0  0  0  0  0  0
  -22.9928   -4.4061  -28.8499 C   0  0  0  0  0  0  0  0  0  0  0  0
  -20.8135   -4.5972  -27.8550 C   0  0  0  0  0  0  0  0  0  0  0  0
  -18.5759   -4.7768  -26.6804 C   0  0  0  0  0  0  0  0  0  0  0  0
  -20.0163   -4.5845  -26.7025 C   0  0  0  0  0  0  0  0  0  0  0  0
  -21.0759   -4.8131  -30.2584 C   0  0  0  0  0  0  0  0  0  0  0  0
  -22.4435   -4.6131  -30.1177 C   0  0  0  0  0  0  0  0  0  0  0  0
  -20.2608   -4.8054  -29.1301 C   0  0  0  0  0  0  0  0  0  0  0  0
  -22.2013   -4.3936  -27.7047 C   0  0  0  0  0  0  0  0  0  0  0  0
  -18.0408   -6.0579  -26.5454 C   0  0  0  0  0  0  0  0  0  0  0  0
  -21.9586   -4.1865  -25.4105 C   0  0  0  0  0  0  0  0  0  0  0  0
  -20.0491   -3.9377  -32.4395 C   0  0  0  0  0  0  0  0  0  0  0  0
  -20.4125   -6.2916  -32.0622 C   0  0  0  0  0  0  0  0  0  0  0  0
  -19.5359   -4.1793  -33.6504 C   0  0  0  0  0  0  0  0  0  0  0  0
  -20.5103   -5.0301  -31.6049 C   0  0  0  0  0  0  0  0  0  0  0  0
  -19.8419   -6.5782  -33.4151 C   0  0  0  0  0  0  0  0  0  0  0  0
  -22.6247   -3.9638  -24.1387 C   0  0  0  0  0  0  0  0  0  0  0  0
  -26.1029   -4.8545  -23.1534 C   0  0  0  0  0  0  0  0  0  0  0  0
  -23.3647   -4.6123  -31.2961 C   0  0  0  0  0  0  0  0  0  0  0  0
  -18.7941   -5.0286  -29.3682 C   0  0  0  0  0  0  0  0  0  0  0  0
  -21.6616   -7.4266  -37.0411 C   0  0  0  0  0  0  0  0  0  0  0  0
  -24.7513   -4.2362  -22.8372 C   0  0  0  0  0  0  0  0  0  0  0  0
  -18.8522   -5.6265  -35.4799 C   0  0  0  0  0  0  0  0  0  0  0  0
  -19.9594   -5.9067  -36.4795 C   0  0  0  0  0  0  0  0  0  0  0  0
  -22.7632   -4.1913  -26.4979 N   0  0  0  0  0  0  0  0  0  0  0  0
  -19.4247   -5.4637  -34.1490 N   0  0  0  0  0  0  0  0  0  0  0  0
  -23.9489   -4.4056  -24.0273 N   0  0  0  0  0  0  0  0  0  0  0  0
  -26.9490   -4.8040  -22.2163 O   0  5  0  0  0  0  0  0  0  0  0  0
  -19.7738   -7.7471  -33.7926 O   0  0  0  0  0  0  0  0  0  0  0  0
  -22.0345   -3.3852  -23.2081 O   0  0  0  0  0  0  0  0  0  0  0  0
  -26.2164   -5.3316  -24.3178 O   0  0  0  0  0  0  0  0  0  0  0  0
  -20.6175   -7.1173  -36.1283 O   0  0  0  0  0  0  0  0  0  0  0  0
  -18.8423   -7.1276  -26.4360 F   0  0  0  0  0  0  0  0  0  0  0  0
  -15.6841   -2.9974  -26.8630 H   0  0  0  0  0  0  0  0  0  0  0  0
  -14.7328   -5.2758  -26.6232 H   0  0  0  0  0  0  0  0  0  0  0  0
  -18.1293   -2.6704  -26.9009 H   0  0  0  0  0  0  0  0  0  0  0  0
  -16.2412   -7.2349  -26.4197 H   0  0  0  0  0  0  0  0  0  0  0  0
  -19.9997   -4.3614  -24.5472 H   0  0  0  0  0  0  0  0  0  0  0  0
  -24.0668   -4.2507  -28.7548 H   0  0  0  0  0  0  0  0  0  0  0  0
  -20.1273   -2.9219  -32.0649 H   0  0  0  0  0  0  0  0  0  0  0  0
  -20.7401   -7.1496  -31.4808 H   0  0  0  0  0  0  0  0  0  0  0  0
  -19.1865   -3.3738  -34.2867 H   0  0  0  0  0  0  0  0  0  0  0  0
  -23.4605   -3.5986  -31.6999 H   0  0  0  0  0  0  0  0  0  0  0  0
  -22.9922   -5.2723  -32.0881 H   0  0  0  0  0  0  0  0  0  0  0  0
  -24.3610   -4.9754  -31.0177 H   0  0  0  0  0  0  0  0  0  0  0  0
  -18.5692   -6.0973  -29.3208 H   0  0  0  0  0  0  0  0  0  0  0  0
  -18.4980   -4.6446  -30.3485 H   0  0  0  0  0  0  0  0  0  0  0  0
  -18.1957   -4.5042  -28.6175 H   0  0  0  0  0  0  0  0  0  0  0  0
  -22.1440   -8.3602  -36.7414 H   0  0  0  0  0  0  0  0  0  0  0  0
  -21.2491   -7.5242  -38.0485 H   0  0  0  0  0  0  0  0  0  0  0  0
  -22.3968   -6.6185  -37.0273 H   0  0  0  0  0  0  0  0  0  0  0  0
  -24.2807   -4.7379  -21.9860 H   0  0  0  0  0  0  0  0  0  0  0  0
  -24.8554   -3.1740  -22.5953 H   0  0  0  0  0  0  0  0  0  0  0  0
  -18.1315   -6.4497  -35.4449 H   0  0  0  0  0  0  0  0  0  0  0  0
  -18.3280   -4.7023  -35.7413 H   0  0  0  0  0  0  0  0  0  0  0  0
  -19.5371   -6.0303  -37.4816 H   0  0  0  0  0  0  0  0  0  0  0  0
  -20.6972   -5.0980  -36.5002 H   0  0  0  0  0  0  0  0  0  0  0  0
  -24.4042   -4.8147  -24.8366 H   0  0  0  0  0  0  0  0  0  0  0  0
  1  2  2  0  0  0  0
  1  3  1  0  0  0  0
  2  4  1  0  0  0  0
  3  8  2  0  0  0  0
  4 14  2  0  0  0  0
  5  9  2  0  0  0  0
  5 15  1  0  0  0  0
  6 11  1  0  0  0  0
  6 13  2  0  0  0  0
  7  9  1  0  0  0  0
  7 12  2  0  0  0  0
  7 13  1  0  0  0  0
  8  9  1  0  0  0  0
  8 14  1  0  0  0  0
 10 11  2  0  0  0  0
 10 12  1  0  0  0  0
 10 19  1  0  0  0  0
 11 23  1  0  0  0  0
 12 24  1  0  0  0  0
 13 29  1  0  0  0  0
 14 37  1  0  0  0  0
 15 21  1  0  0  0  0
 15 29  2  0  0  0  0
 16 18  2  0  0  0  0
 16 19  1  0  0  0  0
 17 19  2  0  0  0  0
 17 20  1  0  0  0  0
 18 30  1  0  0  0  0
 20 30  1  0  0  0  0
 20 33  2  0  0  0  0
 21 31  1  0  0  0  0
 21 34  2  0  0  0  0
 22 26  1  0  0  0  0
 22 32  1  0  0  0  0
 22 35  2  0  0  0  0
 25 36  1  0  0  0  0
 26 31  1  0  0  0  0
 27 28  1  0  0  0  0
 27 30  1  0  0  0  0
 28 36  1  0  0  0  0
  1 38  1  0  0  0  0
  2 39  1  0  0  0  0
  3 40  1  0  0  0  0
  4 41  1  0  0  0  0
  5 42  1  0  0  0  0
  6 43  1  0  0  0  0
 16 44  1  0  0  0  0
 17 45  1  0  0  0  0
 18 46  1  0  0  0  0
 23 47  1  0  0  0  0
 23 48  1  0  0  0  0
 23 49  1  0  0  0  0
 24 50  1  0  0  0  0
 24 51  1  0  0  0  0
 24 52  1  0  0  0  0
 25 53  1  0  0  0  0
 25 54  1  0  0  0  0
 25 55  1  0  0  0  0
 26 56  1  0  0  0  0
 26 57  1  0  0  0  0
 27 58  1  0  0  0  0
 27 59  1  0  0  0  0
 28 60  1  0  0  0  0
 28 61  1  0  0  0  0
 31 62  1  0  0  0  0
M  CHG  1  32  -1
M  END
> <SMILES>
COCCN1C=CC(=CC1=O)c1c(cc2nc(cc(c2c1C)-c1ccccc1F)C(=O)NCC(=O)O)C

> <FORMATTED_ID>
H3D-005797

> <MOLFORMULA>
C28H26FN3O5

> <Exact Mass>
503.19

> <XLogP>
3.32

> <TPSA_NOPS>
108.8

> <s_m_source_file>
ligprep_h3d.sdf

> <i_m_source_file_index>
892

> <i_lp_mmshare_version>
55123

> <i_f3d_flags>
0

> <s_epik_input>
W0NIM11PW0NIMl1bQ0gyXW4xW2NIXVtjSF1jKFtjSF1jMT1PKS1jKGMoW2NIXTIpW0NIM10pYyhbQ0gzXSljKGMyMyljKC1jNFtjSF1bY0hdW2NIXVtjSF1jNEYpW2NIXWMobjMpQyg9TylbTkhdW0NIMl1DKD1PKVtPSF0=

> <s_epik_cmdline>
J2VwaWtfcHl0aG9uJywgJy1waHQnLCAnMC41JywgJy1waCcsICc3LjUnLCAnLXRuJywgJzgnLCAnLW1hJywgJzUwMCcsICctaW1hZScsICc8aW5maWxlLm1hZT4nLCAnLW9tYWUnLCAnPG91dGZpbGUubWFlPic=

> <r_lp_tautomer_probability>
1

> <r_epik_Ionization_Penalty>
0.00013675

> <r_epik_Ionization_Penalty_Charging>
7.51466e-05

> <r_epik_Ionization_Penalty_Neutral>
6.16034e-05

> <r_epik_State_Penalty>
-0

> <r_epik_Charging_Adjusted_Penalty>
7.51466e-05

> <i_epik_Tot_Q>
-1

> <i_epik_Tot_abs_Q>
1

> <s_lp_Force_Field>
S-OPLS

> <r_lp_Energy>
86.0674

> <b_lp_Chiralities_Consistent>
1

> <s_lp_Variant>
ligprep_h3d.sdf:892-1

> <ROCS_ShapeQuery>
_7L13

> <ROCS_TanimotoCombo>
0.803 

> <ROCS_ShapeTanimoto>
0.638 

> <ROCS_ColorTanimoto>
0.165 

> <ROCS_RefTversky>
0.788 

> <ROCS_RefColorTversky>
0.325 

> <ROCS_RefTverskyCombo>
1.113 

> <ROCS_FitTversky>
0.770 

> <ROCS_FitColorTversky>
0.251 

> <ROCS_FitTverskyCombo>
1.021 

> <ROCS_ColorScore>
-2.974

> <ROCS_Overlap>
1310.398

> <ROCS_Rank>
278                 

$$$$
ligprep_h3d.sdf:3005_1778
  -OEChem-08212117123D

 79 85  0     0  0  0  0  0  0999 V2000
  -25.1783   -4.0787  -22.8078 C   0  0  0  0  0  0  0  0  0  0  0  0
  -25.7693   -5.1501  -23.5110 C   0  0  0  0  0  0  0  0  0  0  0  0
  -18.9454   -5.0998  -35.3307 C   0  0  0  0  0  0  0  0  0  0  0  0
  -20.8192   -6.2169  -34.2923 C   0  0  0  0  0  0  0  0  0  0  0  0
  -19.1988   -3.9622  -34.5644 C   0  0  0  0  0  0  0  0  0  0  0  0
  -21.0726   -5.0793  -33.5260 C   0  0  0  0  0  0  0  0  0  0  0  0
  -23.9912   -3.4728  -23.2436 C   0  0  0  0  0  0  0  0  0  0  0  0
  -25.2021   -5.6678  -24.6842 C   0  0  0  0  0  0  0  0  0  0  0  0
  -17.7677   -2.8267  -24.8171 C   0  0  0  0  0  0  0  0  0  0  0  0
  -16.5700   -2.7080  -25.5699 C   0  0  0  0  0  0  0  0  0  0  0  0
  -19.7556   -6.2271  -35.1947 C   0  0  0  0  0  0  0  0  0  0  0  0
  -20.2624   -3.9520  -33.6620 C   0  0  0  0  0  0  0  0  0  0  0  0
  -17.8623   -5.1406  -25.2963 C   0  0  0  0  0  0  0  0  0  0  0  0
  -16.6322   -5.0187  -26.0694 C   0  0  0  0  0  0  0  0  0  0  0  0
  -23.4411   -3.9966  -24.4076 C   0  0  0  0  0  0  0  0  0  0  0  0
  -24.0261   -5.0571  -25.1036 C   0  0  0  0  0  0  0  0  0  0  0  0
  -18.4580   -4.0412  -24.6512 C   0  0  0  0  0  0  0  0  0  0  0  0
  -15.9577   -3.7935  -26.2225 C   0  0  0  0  0  0  0  0  0  0  0  0
  -19.4937   -7.3983  -35.9833 C   0  0  0  0  0  0  0  0  0  0  0  0
  -19.5086   -9.3756  -36.5916 C   0  0  0  0  0  0  0  0  0  0  0  0
  -22.1794   -4.4480  -26.1820 C   0  0  0  0  0  0  0  0  0  0  0  0
  -19.6911   -5.4178  -28.7969 C   0  0  0  0  0  0  0  0  0  0  0  0
  -22.0979   -4.8760  -29.3396 C   0  0  0  0  0  0  0  0  0  0  0  0
  -19.2481   -4.1734  -29.5578 C   0  0  0  0  0  0  0  0  0  0  0  0
  -21.6377   -3.6298  -30.0863 C   0  0  0  0  0  0  0  0  0  0  0  0
  -21.1156   -5.3055  -28.2481 C   0  0  0  0  0  0  0  0  0  0  0  0
  -20.5336   -2.7274  -32.8368 C   0  0  0  0  0  0  0  0  0  0  0  0
  -21.3781   -2.5982  -24.7522 C   0  0  0  0  0  0  0  0  0  0  0  0
  -20.4552   -2.9781  -23.5994 C   0  0  0  0  0  0  0  0  0  0  0  0
  -19.8008   -2.7107  -31.4991 C   0  0  0  0  0  0  0  0  0  0  0  0
  -19.6651  -10.8204  -36.8055 C   0  0  0  0  0  0  0  0  0  0  0  0
  -18.2571   -6.4192  -25.3382 N   0  0  0  0  0  0  0  0  0  0  0  0
  -16.3218   -6.2275  -26.5542 N   0  0  0  0  0  0  0  0  0  0  0  0
  -19.9699   -8.6253  -35.6231 N   0  0  0  0  0  0  0  0  0  0  0  0
  -18.7745   -7.3619  -37.1090 N   0  0  0  0  0  0  0  0  0  0  0  0
  -22.3047   -3.6560  -25.1122 N   0  0  0  0  0  0  0  0  0  0  0  0
  -23.2108   -5.2989  -26.1901 N   0  3  0  0  0  0  0  0  0  0  0  0
  -19.6281   -4.1136  -23.9065 N   0  0  0  0  0  0  0  0  0  0  0  0
  -21.1740   -4.4077  -27.1173 N   0  0  0  0  0  0  0  0  0  0  0  0
  -14.7654   -3.6820  -26.9710 N   0  3  0  0  0  0  0  0  0  0  0  0
  -20.2523   -3.8597  -30.6400 N   0  3  0  0  0  0  0  0  0  0  0  0
  -14.2056   -2.5595  -27.0740 O   0  5  0  0  0  0  0  0  0  0  0  0
  -14.2856   -4.7073  -27.5212 O   0  0  0  0  0  0  0  0  0  0  0  0
  -18.7838   -8.7003  -37.5216 O   0  0  0  0  0  0  0  0  0  0  0  0
  -17.3152   -7.0815  -26.1067 O   0  0  0  0  0  0  0  0  0  0  0  0
  -20.4054  -11.4625  -35.8408 F   0  0  0  0  0  0  0  0  0  0  0  0
  -20.2871  -11.1571  -37.9848 F   0  0  0  0  0  0  0  0  0  0  0  0
  -18.4727  -11.5017  -36.8367 F   0  0  0  0  0  0  0  0  0  0  0  0
  -25.6573   -3.7132  -21.9021 H   0  0  0  0  0  0  0  0  0  0  0  0
  -26.6912   -5.5859  -23.1321 H   0  0  0  0  0  0  0  0  0  0  0  0
  -18.1127   -5.0914  -36.0301 H   0  0  0  0  0  0  0  0  0  0  0  0
  -21.4598   -7.0878  -34.1748 H   0  0  0  0  0  0  0  0  0  0  0  0
  -18.5623   -3.0885  -34.6759 H   0  0  0  0  0  0  0  0  0  0  0  0
  -21.9032   -5.0793  -32.8251 H   0  0  0  0  0  0  0  0  0  0  0  0
  -23.5321   -2.6507  -22.7094 H   0  0  0  0  0  0  0  0  0  0  0  0
  -25.6447   -6.4894  -25.2327 H   0  0  0  0  0  0  0  0  0  0  0  0
  -18.1629   -1.9254  -24.3481 H   0  0  0  0  0  0  0  0  0  0  0  0
  -16.1104   -1.7219  -25.6379 H   0  0  0  0  0  0  0  0  0  0  0  0
  -19.6330   -6.2847  -29.4675 H   0  0  0  0  0  0  0  0  0  0  0  0
  -18.9891   -5.6045  -27.9758 H   0  0  0  0  0  0  0  0  0  0  0  0
  -23.0836   -4.6860  -28.8990 H   0  0  0  0  0  0  0  0  0  0  0  0
  -22.2226   -5.6978  -30.0561 H   0  0  0  0  0  0  0  0  0  0  0  0
  -19.1787   -3.2972  -28.9037 H   0  0  0  0  0  0  0  0  0  0  0  0
  -18.2817   -4.3437  -30.0438 H   0  0  0  0  0  0  0  0  0  0  0  0
  -22.3002   -3.4263  -30.9342 H   0  0  0  0  0  0  0  0  0  0  0  0
  -21.5965   -2.7477  -29.4385 H   0  0  0  0  0  0  0  0  0  0  0  0
  -21.4278   -6.2955  -27.8733 H   0  0  0  0  0  0  0  0  0  0  0  0
  -20.2248   -1.8439  -33.4112 H   0  0  0  0  0  0  0  0  0  0  0  0
  -21.6126   -2.6100  -32.6720 H   0  0  0  0  0  0  0  0  0  0  0  0
  -21.9809   -1.7234  -24.4804 H   0  0  0  0  0  0  0  0  0  0  0  0
  -20.8049   -2.3307  -25.6480 H   0  0  0  0  0  0  0  0  0  0  0  0
  -19.7806   -2.1474  -23.3709 H   0  0  0  0  0  0  0  0  0  0  0  0
  -21.0218   -3.2196  -22.6943 H   0  0  0  0  0  0  0  0  0  0  0  0
  -20.0335   -1.7992  -30.9405 H   0  0  0  0  0  0  0  0  0  0  0  0
  -18.7158   -2.8017  -31.6081 H   0  0  0  0  0  0  0  0  0  0  0  0
  -23.3698   -6.0168  -26.8919 H   0  0  0  0  0  0  0  0  0  0  0  0
  -19.9117   -5.0260  -23.5590 H   0  0  0  0  0  0  0  0  0  0  0  0
  -20.4349   -3.7337  -27.0319 H   0  0  0  0  0  0  0  0  0  0  0  0
  -20.3023   -4.6815  -31.2578 H   0  0  0  0  0  0  0  0  0  0  0  0
  1  2  2  0  0  0  0
  1  7  1  0  0  0  0
  2  8  1  0  0  0  0
  3  5  1  0  0  0  0
  3 11  2  0  0  0  0
  4  6  2  0  0  0  0
  4 11  1  0  0  0  0
  5 12  2  0  0  0  0
  6 12  1  0  0  0  0
  7 15  2  0  0  0  0
  8 16  2  0  0  0  0
  9 10  1  0  0  0  0
  9 17  2  0  0  0  0
 10 18  2  0  0  0  0
 11 19  1  0  0  0  0
 12 27  1  0  0  0  0
 13 14  1  0  0  0  0
 13 17  1  0  0  0  0
 13 32  2  0  0  0  0
 14 18  1  0  0  0  0
 14 33  2  0  0  0  0
 15 16  1  0  0  0  0
 15 36  1  0  0  0  0
 16 37  1  0  0  0  0
 17 38  1  0  0  0  0
 18 40  1  0  0  0  0
 19 34  1  0  0  0  0
 19 35  2  0  0  0  0
 20 31  1  0  0  0  0
 20 34  2  0  0  0  0
 20 44  1  0  0  0  0
 21 36  1  0  0  0  0
 21 37  2  0  0  0  0
 21 39  1  0  0  0  0
 22 24  1  0  0  0  0
 22 26  1  0  0  0  0
 23 25  1  0  0  0  0
 23 26  1  0  0  0  0
 24 41  1  0  0  0  0
 25 41  1  0  0  0  0
 26 39  1  0  0  0  0
 27 30  1  0  0  0  0
 28 29  1  0  0  0  0
 28 36  1  0  0  0  0
 29 38  1  0  0  0  0
 30 41  1  0  0  0  0
 31 46  1  0  0  0  0
 31 47  1  0  0  0  0
 31 48  1  0  0  0  0
 32 45  1  0  0  0  0
 33 45  1  0  0  0  0
 35 44  1  0  0  0  0
 40 42  1  0  0  0  0
 40 43  2  0  0  0  0
  1 49  1  0  0  0  0
  2 50  1  0  0  0  0
  3 51  1  0  0  0  0
  4 52  1  0  0  0  0
  5 53  1  0  0  0  0
  6 54  1  0  0  0  0
  7 55  1  0  0  0  0
  8 56  1  0  0  0  0
  9 57  1  0  0  0  0
 10 58  1  0  0  0  0
 22 59  1  0  0  0  0
 22 60  1  0  0  0  0
 23 61  1  0  0  0  0
 23 62  1  0  0  0  0
 24 63  1  0  0  0  0
 24 64  1  0  0  0  0
 25 65  1  0  0  0  0
 25 66  1  0  0  0  0
 26 67  1  0  0  0  0
 27 68  1  0  0  0  0
 27 69  1  0  0  0  0
 28 70  1  0  0  0  0
 28 71  1  0  0  0  0
 29 72  1  0  0  0  0
 29 73  1  0  0  0  0
 30 74  1  0  0  0  0
 30 75  1  0  0  0  0
 37 76  1  0  0  0  0
 38 77  1  0  0  0  0
 39 78  1  0  0  0  0
 41 79  1  0  0  0  0
M  CHG  4  37   1  40   1  41   1  42  -1
M  END
> <SMILES>
[O-][N+](=O)c1ccc(c2nonc12)NCCn1c(nc2ccccc12)NC1CCN(CC1)CCc1ccc(cc1)-c1noc(n1)C(F)(F)F

> <FORMATTED_ID>
H3D-014806

> <MOLFORMULA>
C31H29F3N10O4

> <Exact Mass>
662.23

> <XLogP>
6.17

> <TPSA_NOPS>
166.7

> <s_m_source_file>
ligprep_h3d.sdf

> <i_m_source_file_index>
3005

> <i_lp_mmshare_version>
55123

> <i_f3d_flags>
0

> <s_epik_input>
bjFvbmMoYzEyKWMoW04rXShbTy1dKT1PKVtjSF1bY0hdYzJbTkhdW0NIMl1bQ0gyXW4oYyhjMzQpW2NIXVtjSF1bY0hdW2NIXTQpYyhuMylbTkhdW0NIXTVbQ0gyXVtDSDJdTihbQ0gyXVtDSDJdNSlbQ0gyXVtDSDJdYzZbY0hdW2NIXWMoW2NIXVtjSF02KS1jN25vYyhuNylDKEYpKEYpRg==

> <s_epik_cmdline>
J2VwaWtfcHl0aG9uJywgJy1waHQnLCAnMC41JywgJy1waCcsICc3LjUnLCAnLXRuJywgJzgnLCAnLW1hJywgJzUwMCcsICctaW1hZScsICc8aW5maWxlLm1hZT4nLCAnLW9tYWUnLCAnPG91dGZpbGUubWFlPic=

> <r_lp_tautomer_probability>
1

> <r_epik_Ionization_Penalty>
0.438156

> <r_epik_Ionization_Penalty_Charging>
0.43809

> <r_epik_Ionization_Penalty_Neutral>
6.59352e-05

> <r_epik_State_Penalty>
0.428998

> <r_epik_Charging_Adjusted_Penalty>
0.867088

> <i_epik_Tot_Q>
2

> <i_epik_Tot_abs_Q>
4

> <s_lp_Force_Field>
S-OPLS

> <r_lp_Energy>
68.6296

> <b_lp_Chiralities_Consistent>
1

> <s_lp_Variant>
ligprep_h3d.sdf:3005-2

> <ROCS_ShapeQuery>
_7L13

> <ROCS_TanimotoCombo>
0.554 

> <ROCS_ShapeTanimoto>
0.516 

> <ROCS_ColorTanimoto>
0.038 

> <ROCS_RefTversky>
0.788 

> <ROCS_RefColorTversky>
0.107 

> <ROCS_RefTverskyCombo>
0.895 

> <ROCS_FitTversky>
0.600 

> <ROCS_FitColorTversky>
0.055 

> <ROCS_FitTverskyCombo>
0.655 

> <ROCS_ColorScore>
-1.020

> <ROCS_Overlap>
1331.844

> <ROCS_Rank>
279                 

$$$$
ligprep_h3d.sdf:781_1659
  -OEChem-08212117123D

 63 66  0     0  0  0  0  0  0999 V2000
  -16.8562   -6.0589  -26.4924 C   0  0  0  0  0  0  0  0  0  0  0  0
  -23.0135   -4.2292  -28.8409 C   0  0  0  0  0  0  0  0  0  0  0  0
  -20.7100   -4.4744  -25.3907 C   0  0  0  0  0  0  0  0  0  0  0  0
  -16.6954   -4.6647  -26.6024 C   0  0  0  0  0  0  0  0  0  0  0  0
  -20.8850   -4.6243  -27.7973 C   0  0  0  0  0  0  0  0  0  0  0  0
  -21.1005   -4.7658  -30.2108 C   0  0  0  0  0  0  0  0  0  0  0  0
  -22.4500   -4.4545  -30.0993 C   0  0  0  0  0  0  0  0  0  0  0  0
  -20.3180   -4.8510  -29.0629 C   0  0  0  0  0  0  0  0  0  0  0  0
  -22.2544   -4.3080  -27.6765 C   0  0  0  0  0  0  0  0  0  0  0  0
  -20.1204   -4.7036  -26.6255 C   0  0  0  0  0  0  0  0  0  0  0  0
  -22.0563   -4.1713  -25.3728 C   0  0  0  0  0  0  0  0  0  0  0  0
  -18.2166   -6.2483  -26.4876 C   0  0  0  0  0  0  0  0  0  0  0  0
  -19.9447   -3.9343  -32.3441 C   0  0  0  0  0  0  0  0  0  0  0  0
  -20.5136   -6.2567  -32.0308 C   0  0  0  0  0  0  0  0  0  0  0  0
  -19.4204   -4.1928  -33.5466 C   0  0  0  0  0  0  0  0  0  0  0  0
  -20.5183   -5.0013  -31.5471 C   0  0  0  0  0  0  0  0  0  0  0  0
  -19.9320   -6.5619  -33.3750 C   0  0  0  0  0  0  0  0  0  0  0  0
  -22.7345   -3.9202  -24.1128 C   0  0  0  0  0  0  0  0  0  0  0  0
  -23.3359   -4.3502  -31.2999 C   0  0  0  0  0  0  0  0  0  0  0  0
  -18.8679   -5.1915  -29.2628 C   0  0  0  0  0  0  0  0  0  0  0  0
  -19.0128   -7.4878  -26.3948 C   0  0  0  0  0  0  0  0  0  0  0  0
  -21.7160   -7.1781  -37.0651 C   0  0  0  0  0  0  0  0  0  0  0  0
  -18.8100   -5.6538  -35.3912 C   0  0  0  0  0  0  0  0  0  0  0  0
  -24.9099   -4.0401  -22.8701 C   0  0  0  0  0  0  0  0  0  0  0  0
  -19.9089   -5.8189  -36.4250 C   0  0  0  0  0  0  0  0  0  0  0  0
  -26.0152   -5.0610  -22.7703 C   0  0  0  0  0  0  0  0  0  0  0  0
  -17.8605   -4.0145  -26.6633 N   0  0  0  0  0  0  0  0  0  0  0  0
  -22.8293   -4.0850  -26.4796 N   0  0  0  0  0  0  0  0  0  0  0  0
  -18.7664   -5.0045  -26.5914 N   0  0  0  0  0  0  0  0  0  0  0  0
  -19.4032   -5.4713  -34.0719 N   0  0  0  0  0  0  0  0  0  0  0  0
  -24.0935   -4.2512  -24.0439 N   0  0  0  0  0  0  0  0  0  0  0  0
  -19.9514   -7.7242  -33.7776 O   0  0  0  0  0  0  0  0  0  0  0  0
  -22.1227   -3.4132  -23.1549 O   0  0  0  0  0  0  0  0  0  0  0  0
  -20.6751   -6.9769  -36.1189 O   0  0  0  0  0  0  0  0  0  0  0  0
  -26.7611   -4.8433  -21.6645 F   0  0  0  0  0  0  0  0  0  0  0  0
  -26.8395   -5.0013  -23.8379 F   0  0  0  0  0  0  0  0  0  0  0  0
  -25.5222   -6.3152  -22.6906 F   0  0  0  0  0  0  0  0  0  0  0  0
  -16.0912   -6.8187  -26.4263 H   0  0  0  0  0  0  0  0  0  0  0  0
  -24.0729   -3.9859  -28.7686 H   0  0  0  0  0  0  0  0  0  0  0  0
  -20.1399   -4.5296  -24.4677 H   0  0  0  0  0  0  0  0  0  0  0  0
  -15.7776   -4.0956  -26.6410 H   0  0  0  0  0  0  0  0  0  0  0  0
  -19.9481   -2.9237  -31.9481 H   0  0  0  0  0  0  0  0  0  0  0  0
  -20.9276   -7.0961  -31.4781 H   0  0  0  0  0  0  0  0  0  0  0  0
  -18.9877   -3.4064  -34.1550 H   0  0  0  0  0  0  0  0  0  0  0  0
  -23.3352   -3.3235  -31.6817 H   0  0  0  0  0  0  0  0  0  0  0  0
  -22.9991   -5.0221  -32.0978 H   0  0  0  0  0  0  0  0  0  0  0  0
  -24.3663   -4.6336  -31.0551 H   0  0  0  0  0  0  0  0  0  0  0  0
  -18.7345   -6.2759  -29.2333 H   0  0  0  0  0  0  0  0  0  0  0  0
  -18.5107   -4.8136  -30.2249 H   0  0  0  0  0  0  0  0  0  0  0  0
  -18.2520   -4.7344  -28.4830 H   0  0  0  0  0  0  0  0  0  0  0  0
  -19.2349   -7.7397  -25.3449 H   0  0  0  0  0  0  0  0  0  0  0  0
  -19.9742   -7.4030  -26.9297 H   0  0  0  0  0  0  0  0  0  0  0  0
  -18.4899   -8.3499  -26.8431 H   0  0  0  0  0  0  0  0  0  0  0  0
  -22.2826   -8.0739  -36.7996 H   0  0  0  0  0  0  0  0  0  0  0  0
  -21.2855   -7.2889  -38.0636 H   0  0  0  0  0  0  0  0  0  0  0  0
  -22.3812   -6.3115  -37.0514 H   0  0  0  0  0  0  0  0  0  0  0  0
  -18.1618   -6.5352  -35.3568 H   0  0  0  0  0  0  0  0  0  0  0  0
  -18.2035   -4.7716  -35.6175 H   0  0  0  0  0  0  0  0  0  0  0  0
  -24.2541   -4.0941  -21.9962 H   0  0  0  0  0  0  0  0  0  0  0  0
  -25.3227   -3.0289  -22.9313 H   0  0  0  0  0  0  0  0  0  0  0  0
  -19.4710   -5.9564  -37.4186 H   0  0  0  0  0  0  0  0  0  0  0  0
  -20.5757   -4.9507  -36.4459 H   0  0  0  0  0  0  0  0  0  0  0  0
  -24.5601   -4.6033  -24.8734 H   0  0  0  0  0  0  0  0  0  0  0  0
  1  4  1  0  0  0  0
  1 12  2  0  0  0  0
  2  7  1  0  0  0  0
  2  9  2  0  0  0  0
  3 10  2  0  0  0  0
  3 11  1  0  0  0  0
  4 27  2  0  0  0  0
  5  8  2  0  0  0  0
  5  9  1  0  0  0  0
  5 10  1  0  0  0  0
  6  7  2  0  0  0  0
  6  8  1  0  0  0  0
  6 16  1  0  0  0  0
  7 19  1  0  0  0  0
  8 20  1  0  0  0  0
  9 28  1  0  0  0  0
 10 29  1  0  0  0  0
 11 18  1  0  0  0  0
 11 28  2  0  0  0  0
 12 21  1  0  0  0  0
 12 29  1  0  0  0  0
 13 15  2  0  0  0  0
 13 16  1  0  0  0  0
 14 16  2  0  0  0  0
 14 17  1  0  0  0  0
 15 30  1  0  0  0  0
 17 30  1  0  0  0  0
 17 32  2  0  0  0  0
 18 31  1  0  0  0  0
 18 33  2  0  0  0  0
 22 34  1  0  0  0  0
 23 25  1  0  0  0  0
 23 30  1  0  0  0  0
 24 26  1  0  0  0  0
 24 31  1  0  0  0  0
 25 34  1  0  0  0  0
 26 35  1  0  0  0  0
 26 36  1  0  0  0  0
 26 37  1  0  0  0  0
 27 29  1  0  0  0  0
  1 38  1  0  0  0  0
  2 39  1  0  0  0  0
  3 40  1  0  0  0  0
  4 41  1  0  0  0  0
 13 42  1  0  0  0  0
 14 43  1  0  0  0  0
 15 44  1  0  0  0  0
 19 45  1  0  0  0  0
 19 46  1  0  0  0  0
 19 47  1  0  0  0  0
 20 48  1  0  0  0  0
 20 49  1  0  0  0  0
 20 50  1  0  0  0  0
 21 51  1  0  0  0  0
 21 52  1  0  0  0  0
 21 53  1  0  0  0  0
 22 54  1  0  0  0  0
 22 55  1  0  0  0  0
 22 56  1  0  0  0  0
 23 57  1  0  0  0  0
 23 58  1  0  0  0  0
 24 59  1  0  0  0  0
 24 60  1  0  0  0  0
 25 61  1  0  0  0  0
 25 62  1  0  0  0  0
 31 63  1  0  0  0  0
M  END
> <SMILES>
COCCN1C=CC(=CC1=O)c1c(cc2nc(cc(c2c1C)-n1nccc1C)C(=O)NCC(F)(F)F)C

> <FORMATTED_ID>
H3D-005322

> <MOLFORMULA>
C26H26F3N5O3

> <Exact Mass>
513.2

> <XLogP>
3.58

> <TPSA_NOPS>
89.3

> <s_m_source_file>
ligprep_h3d.sdf

> <i_m_source_file_index>
781

> <i_lp_mmshare_version>
55123

> <i_f3d_flags>
0

> <s_epik_input>
W0NIM11PW0NIMl1bQ0gyXW4xW2NIXVtjSF1jKFtjSF1jMT1PKS1jKGMoW2NIXTIpW0NIM10pYyhbQ0gzXSljKGMyMyljKFtjSF1jKG4zKUMoPU8pW05IXVtDSDJdQyhGKShGKUYpLW40bltjSF1bY0hdYzRbQ0gzXQ==

> <s_epik_cmdline>
J2VwaWtfcHl0aG9uJywgJy1waHQnLCAnMC41JywgJy1waCcsICc3LjUnLCAnLXRuJywgJzgnLCAnLW1hJywgJzUwMCcsICctaW1hZScsICc8aW5maWxlLm1hZT4nLCAnLW9tYWUnLCAnPG91dGZpbGUubWFlPic=

> <r_lp_tautomer_probability>
1

> <r_epik_Ionization_Penalty>
7.17612e-05

> <r_epik_Ionization_Penalty_Charging>
2.32377e-07

> <r_epik_Ionization_Penalty_Neutral>
7.15288e-05

> <r_epik_State_Penalty>
-0

> <r_epik_Charging_Adjusted_Penalty>
2.32377e-07

> <i_epik_Tot_Q>
0

> <i_epik_Tot_abs_Q>
0

> <s_lp_Force_Field>
S-OPLS

> <r_lp_Energy>
69.1565

> <b_lp_Chiralities_Consistent>
1

> <s_lp_Variant>
ligprep_h3d.sdf:781-1

> <ROCS_ShapeQuery>
_7L13

> <ROCS_TanimotoCombo>
0.751 

> <ROCS_ShapeTanimoto>
0.633 

> <ROCS_ColorTanimoto>
0.119 

> <ROCS_RefTversky>
0.788 

> <ROCS_RefColorTversky>
0.223 

> <ROCS_RefTverskyCombo>
1.011 

> <ROCS_FitTversky>
0.762 

> <ROCS_FitColorTversky>
0.203 

> <ROCS_FitTverskyCombo>
0.965 

> <ROCS_ColorScore>
-2.020

> <ROCS_Overlap>
1310.555

> <ROCS_Rank>
280                 

$$$$
ligprep_h3d.sdf:2645_1737
  -OEChem-08212117123D

 62 65  0     0  0  0  0  0  0999 V2000
  -19.9896   -5.4296  -25.7247 C   0  0  0  0  0  0  0  0  0  0  0  0
  -18.8205   -3.4797  -26.5420 C   0  0  0  0  0  0  0  0  0  0  0  0
  -18.8577   -6.2087  -25.9640 C   0  0  0  0  0  0  0  0  0  0  0  0
  -17.6884   -4.2588  -26.7813 C   0  0  0  0  0  0  0  0  0  0  0  0
  -22.6535   -3.3287  -32.1017 C   0  0  0  0  0  0  0  0  0  0  0  0
  -25.4709   -5.3439  -24.8336 C   0  0  0  0  0  0  0  0  0  0  0  0
  -23.4797   -3.7021  -23.6387 C   0  0  0  0  0  0  0  0  0  0  0  0
  -23.0876   -3.1681  -29.7304 C   0  0  0  0  0  0  0  0  0  0  0  0
  -19.9711   -4.0651  -26.0138 C   0  0  0  0  0  0  0  0  0  0  0  0
  -17.7071   -5.6233  -26.4923 C   0  0  0  0  0  0  0  0  0  0  0  0
  -21.7727   -4.3849  -31.8689 C   0  0  0  0  0  0  0  0  0  0  0  0
  -24.3274   -4.9706  -25.5598 C   0  0  0  0  0  0  0  0  0  0  0  0
  -23.3689   -4.1664  -24.9497 C   0  0  0  0  0  0  0  0  0  0  0  0
  -22.2068   -4.2244  -29.4976 C   0  0  0  0  0  0  0  0  0  0  0  0
  -21.5494   -4.8328  -30.5669 C   0  0  0  0  0  0  0  0  0  0  0  0
  -25.6035   -4.8893  -23.5156 C   0  0  0  0  0  0  0  0  0  0  0  0
  -24.6243   -4.0830  -22.9307 C   0  0  0  0  0  0  0  0  0  0  0  0
  -23.3109   -2.7202  -31.0324 C   0  0  0  0  0  0  0  0  0  0  0  0
  -22.8046   -4.6760  -27.0274 C   0  0  0  0  0  0  0  0  0  0  0  0
  -17.4605   -4.8565  -34.2042 C   0  0  0  0  0  0  0  0  0  0  0  0
  -19.0436   -6.8145  -34.0717 C   0  0  0  0  0  0  0  0  0  0  0  0
  -19.5809   -4.8579  -35.5686 C   0  0  0  0  0  0  0  0  0  0  0  0
  -21.1917   -3.2238  -25.7555 C   0  0  0  0  0  0  0  0  0  0  0  0
  -21.0746   -5.0260  -33.0319 C   0  0  0  0  0  0  0  0  0  0  0  0
  -16.4966   -6.4566  -26.7464 C   0  0  0  0  0  0  0  0  0  0  0  0
  -18.9203   -5.3038  -34.2650 C   0  0  0  0  0  0  0  0  0  0  0  0
  -23.9596   -5.2772  -26.8499 N   0  0  0  0  0  0  0  0  0  0  0  0
  -22.4065   -3.9940  -25.9114 N   0  0  0  0  0  0  0  0  0  0  0  0
  -21.9887   -4.6651  -28.1740 N   0  0  0  0  0  0  0  0  0  0  0  0
  -19.6466   -4.6402  -33.1370 N   0  3  0  0  0  0  0  0  0  0  0  0
  -20.6856   -5.8650  -30.3419 O   0  0  0  0  0  0  0  0  0  0  0  0
  -26.6863   -5.2348  -22.8053 F   0  0  0  0  0  0  0  0  0  0  0  0
  -24.7833   -3.6663  -21.6664 F   0  0  0  0  0  0  0  0  0  0  0  0
  -16.6581   -7.7720  -26.4155 F   0  0  0  0  0  0  0  0  0  0  0  0
  -16.1028   -6.4644  -28.0543 F   0  0  0  0  0  0  0  0  0  0  0  0
  -15.4091   -6.0323  -26.0391 F   0  0  0  0  0  0  0  0  0  0  0  0
  -24.3966   -1.4156  -31.3194 Cl  0  0  0  0  0  0  0  0  0  0  0  0
  -20.8818   -5.8942  -25.3132 H   0  0  0  0  0  0  0  0  0  0  0  0
  -18.7969   -2.4170  -26.7688 H   0  0  0  0  0  0  0  0  0  0  0  0
  -18.8809   -7.2705  -25.7341 H   0  0  0  0  0  0  0  0  0  0  0  0
  -16.7960   -3.7948  -27.1931 H   0  0  0  0  0  0  0  0  0  0  0  0
  -22.8245   -2.9822  -33.1185 H   0  0  0  0  0  0  0  0  0  0  0  0
  -26.2371   -5.9701  -25.2790 H   0  0  0  0  0  0  0  0  0  0  0  0
  -22.7206   -3.0762  -23.1833 H   0  0  0  0  0  0  0  0  0  0  0  0
  -23.5989   -2.6951  -28.8946 H   0  0  0  0  0  0  0  0  0  0  0  0
  -17.3683   -3.7731  -34.3424 H   0  0  0  0  0  0  0  0  0  0  0  0
  -17.0151   -5.1066  -33.2348 H   0  0  0  0  0  0  0  0  0  0  0  0
  -16.8604   -5.3436  -34.9812 H   0  0  0  0  0  0  0  0  0  0  0  0
  -20.0895   -7.1390  -34.1148 H   0  0  0  0  0  0  0  0  0  0  0  0
  -18.6374   -7.1283  -33.1035 H   0  0  0  0  0  0  0  0  0  0  0  0
  -18.4960   -7.3544  -34.8523 H   0  0  0  0  0  0  0  0  0  0  0  0
  -20.6283   -5.1771  -35.6158 H   0  0  0  0  0  0  0  0  0  0  0  0
  -19.5618   -3.7664  -35.6630 H   0  0  0  0  0  0  0  0  0  0  0  0
  -19.0658   -5.2759  -36.4412 H   0  0  0  0  0  0  0  0  0  0  0  0
  -21.1777   -2.8065  -24.7413 H   0  0  0  0  0  0  0  0  0  0  0  0
  -21.2369   -2.3699  -26.4425 H   0  0  0  0  0  0  0  0  0  0  0  0
  -21.1004   -6.1184  -32.9560 H   0  0  0  0  0  0  0  0  0  0  0  0
  -21.5466   -4.7461  -33.9798 H   0  0  0  0  0  0  0  0  0  0  0  0
  -21.0609   -5.0481  -28.0223 H   0  0  0  0  0  0  0  0  0  0  0  0
  -19.5724   -3.6234  -33.2533 H   0  0  0  0  0  0  0  0  0  0  0  0
  -19.1639   -4.8647  -32.2597 H   0  0  0  0  0  0  0  0  0  0  0  0
  -20.3120   -6.1752  -31.1808 H   0  0  0  0  0  0  0  0  0  0  0  0
  1  3  1  0  0  0  0
  1  9  2  0  0  0  0
  2  4  2  0  0  0  0
  2  9  1  0  0  0  0
  3 10  2  0  0  0  0
  4 10  1  0  0  0  0
  5 11  2  0  0  0  0
  5 18  1  0  0  0  0
  6 12  2  0  0  0  0
  6 16  1  0  0  0  0
  7 13  2  0  0  0  0
  7 17  1  0  0  0  0
  8 14  1  0  0  0  0
  8 18  2  0  0  0  0
  9 23  1  0  0  0  0
 10 25  1  0  0  0  0
 11 15  1  0  0  0  0
 11 24  1  0  0  0  0
 12 13  1  0  0  0  0
 12 27  1  0  0  0  0
 13 28  1  0  0  0  0
 14 15  2  0  0  0  0
 14 29  1  0  0  0  0
 15 31  1  0  0  0  0
 16 17  2  0  0  0  0
 16 32  1  0  0  0  0
 17 33  1  0  0  0  0
 18 37  1  0  0  0  0
 19 27  2  0  0  0  0
 19 28  1  0  0  0  0
 19 29  1  0  0  0  0
 20 26  1  0  0  0  0
 21 26  1  0  0  0  0
 22 26  1  0  0  0  0
 23 28  1  0  0  0  0
 24 30  1  0  0  0  0
 25 34  1  0  0  0  0
 25 35  1  0  0  0  0
 25 36  1  0  0  0  0
 26 30  1  0  0  0  0
  1 38  1  0  0  0  0
  2 39  1  0  0  0  0
  3 40  1  0  0  0  0
  4 41  1  0  0  0  0
  5 42  1  0  0  0  0
  6 43  1  0  0  0  0
  7 44  1  0  0  0  0
  8 45  1  0  0  0  0
 20 46  1  0  0  0  0
 20 47  1  0  0  0  0
 20 48  1  0  0  0  0
 21 49  1  0  0  0  0
 21 50  1  0  0  0  0
 21 51  1  0  0  0  0
 22 52  1  0  0  0  0
 22 53  1  0  0  0  0
 22 54  1  0  0  0  0
 23 55  1  0  0  0  0
 23 56  1  0  0  0  0
 24 57  1  0  0  0  0
 24 58  1  0  0  0  0
 29 59  1  0  0  0  0
 30 60  1  0  0  0  0
 30 61  1  0  0  0  0
 31 62  1  0  0  0  0
M  CHG  1  30   1
M  END
> <SMILES>
CC(C)(C)NCc1cc(cc(c1O)Nc1nc2cc(c(cc2n1Cc1ccc(cc1)C(F)(F)F)F)F)Cl

> <FORMATTED_ID>
H3D-007333

> <MOLFORMULA>
C26H24ClF5N4O

> <Exact Mass>
538.16

> <XLogP>
8.72

> <TPSA_NOPS>
62.1

> <s_m_source_file>
ligprep_h3d.sdf

> <i_m_source_file_index>
2645

> <i_lp_mmshare_version>
55123

> <i_f3d_flags>
0

> <s_epik_input>
W0NIM11DKFtDSDNdKShbQ0gzXSlbTkhdW0NIMl1jMVtjSF1jKENsKVtjSF1jKGMxW09IXSlbTkhdYyhuMiluKGMoYzIzKVtjSF1jKEYpYyhGKVtjSF0zKVtDSDJdYzRbY0hdW2NIXWMoQyhGKShGKUYpW2NIXVtjSF00

> <s_epik_cmdline>
J2VwaWtfcHl0aG9uJywgJy1waHQnLCAnMC41JywgJy1waCcsICc3LjUnLCAnLXRuJywgJzgnLCAnLW1hJywgJzUwMCcsICctaW1hZScsICc8aW5maWxlLm1hZT4nLCAnLW9tYWUnLCAnPG91dGZpbGUubWFlPic=

> <r_lp_tautomer_probability>
1

> <r_epik_Ionization_Penalty>
0.137252

> <r_epik_Ionization_Penalty_Charging>
0.0147642

> <r_epik_Ionization_Penalty_Neutral>
0.122488

> <r_epik_State_Penalty>
-0

> <r_epik_Charging_Adjusted_Penalty>
0.0147642

> <i_epik_Tot_Q>
1

> <i_epik_Tot_abs_Q>
1

> <s_lp_Force_Field>
S-OPLS

> <r_lp_Energy>
38.2259

> <b_lp_Chiralities_Consistent>
1

> <s_lp_Variant>
ligprep_h3d.sdf:2645-1

> <ROCS_ShapeQuery>
_7L13

> <ROCS_TanimotoCombo>
0.744 

> <ROCS_ShapeTanimoto>
0.640 

> <ROCS_ColorTanimoto>
0.103 

> <ROCS_RefTversky>
0.787 

> <ROCS_RefColorTversky>
0.206 

> <ROCS_RefTverskyCombo>
0.993 

> <ROCS_FitTversky>
0.774 

> <ROCS_FitColorTversky>
0.172 

> <ROCS_FitTverskyCombo>
0.946 

> <ROCS_ColorScore>
-1.875

> <ROCS_Overlap>
1308.853

> <ROCS_Rank>
281                 

$$$$
ligprep_h3d.sdf:2712_1909
  -OEChem-08212117123D

 71 76  0     0  0  0  0  0  0999 V2000
  -25.6811   -5.0710  -23.3162 C   0  0  0  0  0  0  0  0  0  0  0  0
  -24.7986   -4.2068  -22.6639 C   0  0  0  0  0  0  0  0  0  0  0  0
  -20.0743   -7.5310  -36.2207 C   0  0  0  0  0  0  0  0  0  0  0  0
  -18.5125   -5.7933  -35.6060 C   0  0  0  0  0  0  0  0  0  0  0  0
  -20.6667   -7.4443  -34.9609 C   0  0  0  0  0  0  0  0  0  0  0  0
  -19.1049   -5.7065  -34.3461 C   0  0  0  0  0  0  0  0  0  0  0  0
  -19.9870   -4.9851  -25.3813 C   0  0  0  0  0  0  0  0  0  0  0  0
  -18.9836   -2.9023  -26.0828 C   0  0  0  0  0  0  0  0  0  0  0  0
  -18.7839   -5.6471  -25.6257 C   0  0  0  0  0  0  0  0  0  0  0  0
  -17.7804   -3.5644  -26.3272 C   0  0  0  0  0  0  0  0  0  0  0  0
  -25.4706   -5.4460  -24.6491 C   0  0  0  0  0  0  0  0  0  0  0  0
  -23.6763   -3.6867  -23.3170 C   0  0  0  0  0  0  0  0  0  0  0  0
  -18.9971   -6.7055  -36.5433 C   0  0  0  0  0  0  0  0  0  0  0  0
  -20.1820   -6.5320  -34.0236 C   0  0  0  0  0  0  0  0  0  0  0  0
  -20.0869   -3.6127  -25.6098 C   0  0  0  0  0  0  0  0  0  0  0  0
  -17.6806   -4.9368  -26.0987 C   0  0  0  0  0  0  0  0  0  0  0  0
  -24.3481   -4.9327  -25.3207 C   0  0  0  0  0  0  0  0  0  0  0  0
  -23.4867   -4.0737  -24.6440 C   0  0  0  0  0  0  0  0  0  0  0  0
  -18.3844   -6.7953  -37.8460 C   0  0  0  0  0  0  0  0  0  0  0  0
  -22.8208   -4.4259  -26.7242 C   0  0  0  0  0  0  0  0  0  0  0  0
  -17.2367   -6.7709  -39.5670 C   0  0  0  0  0  0  0  0  0  0  0  0
  -21.4141   -5.6888  -28.3333 C   0  0  0  0  0  0  0  0  0  0  0  0
  -22.7826   -3.7074  -29.1002 C   0  0  0  0  0  0  0  0  0  0  0  0
  -20.6015   -5.6131  -29.6195 C   0  0  0  0  0  0  0  0  0  0  0  0
  -21.9592   -3.6467  -30.3805 C   0  0  0  0  0  0  0  0  0  0  0  0
  -21.9767   -4.3134  -27.9399 C   0  0  0  0  0  0  0  0  0  0  0  0
  -16.1062   -6.5396  -40.4724 C   0  0  0  0  0  0  0  0  0  0  0  0
  -20.8195   -6.4391  -32.6675 C   0  0  0  0  0  0  0  0  0  0  0  0
  -21.3844   -2.8976  -25.3460 C   0  0  0  0  0  0  0  0  0  0  0  0
  -20.7422   -5.0492  -32.0438 C   0  0  0  0  0  0  0  0  0  0  0  0
  -16.3940   -5.6451  -26.3583 C   0  0  0  0  0  0  0  0  0  0  0  0
  -23.9183   -5.1399  -26.6113 N   0  0  0  0  0  0  0  0  0  0  0  0
  -17.2014   -6.4087  -38.2519 N   0  0  0  0  0  0  0  0  0  0  0  0
  -18.3675   -7.3513  -39.9796 N   0  0  0  0  0  0  0  0  0  0  0  0
  -22.5193   -3.7655  -25.5657 N   0  0  0  0  0  0  0  0  0  0  0  0
  -21.4550   -5.0290  -30.7195 N   0  3  0  0  0  0  0  0  0  0  0  0
  -19.1453   -7.3685  -38.8150 O   0  0  0  0  0  0  0  0  0  0  0  0
  -16.4419   -6.9835  -26.0894 F   0  0  0  0  0  0  0  0  0  0  0  0
  -15.9736   -5.5573  -27.6549 F   0  0  0  0  0  0  0  0  0  0  0  0
  -15.3650   -5.1572  -25.6060 F   0  0  0  0  0  0  0  0  0  0  0  0
  -26.5439   -5.4600  -22.7817 H   0  0  0  0  0  0  0  0  0  0  0  0
  -24.9872   -3.9324  -21.6288 H   0  0  0  0  0  0  0  0  0  0  0  0
  -20.4634   -8.2474  -36.9404 H   0  0  0  0  0  0  0  0  0  0  0  0
  -17.6738   -5.1427  -35.8425 H   0  0  0  0  0  0  0  0  0  0  0  0
  -21.5052   -8.0916  -34.7180 H   0  0  0  0  0  0  0  0  0  0  0  0
  -18.7205   -4.9927  -33.6224 H   0  0  0  0  0  0  0  0  0  0  0  0
  -20.8417   -5.5467  -25.0131 H   0  0  0  0  0  0  0  0  0  0  0  0
  -19.0522   -1.8325  -26.2622 H   0  0  0  0  0  0  0  0  0  0  0  0
  -18.7150   -6.7162  -25.4431 H   0  0  0  0  0  0  0  0  0  0  0  0
  -16.9255   -3.0035  -26.6956 H   0  0  0  0  0  0  0  0  0  0  0  0
  -26.1618   -6.1185  -25.1464 H   0  0  0  0  0  0  0  0  0  0  0  0
  -22.9914   -3.0167  -22.8097 H   0  0  0  0  0  0  0  0  0  0  0  0
  -22.2310   -6.4124  -28.4586 H   0  0  0  0  0  0  0  0  0  0  0  0
  -20.7782   -6.0774  -27.5280 H   0  0  0  0  0  0  0  0  0  0  0  0
  -23.1146   -2.6952  -28.8370 H   0  0  0  0  0  0  0  0  0  0  0  0
  -23.6942   -4.2939  -29.2784 H   0  0  0  0  0  0  0  0  0  0  0  0
  -19.7180   -4.9750  -29.5070 H   0  0  0  0  0  0  0  0  0  0  0  0
  -20.2925   -6.6140  -29.9384 H   0  0  0  0  0  0  0  0  0  0  0  0
  -22.5760   -3.3068  -31.2189 H   0  0  0  0  0  0  0  0  0  0  0  0
  -21.0881   -2.9903  -30.2758 H   0  0  0  0  0  0  0  0  0  0  0  0
  -21.1389   -3.6442  -27.7053 H   0  0  0  0  0  0  0  0  0  0  0  0
  -15.4090   -7.3978  -40.4797 H   0  0  0  0  0  0  0  0  0  0  0  0
  -16.4288   -6.3713  -41.5178 H   0  0  0  0  0  0  0  0  0  0  0  0
  -15.5188   -5.6431  -40.1953 H   0  0  0  0  0  0  0  0  0  0  0  0
  -21.8775   -6.7186  -32.7592 H   0  0  0  0  0  0  0  0  0  0  0  0
  -20.3770   -7.1780  -31.9868 H   0  0  0  0  0  0  0  0  0  0  0  0
  -21.4300   -2.5276  -24.3145 H   0  0  0  0  0  0  0  0  0  0  0  0
  -21.4927   -2.0207  -25.9958 H   0  0  0  0  0  0  0  0  0  0  0  0
  -21.2464   -4.3118  -32.6755 H   0  0  0  0  0  0  0  0  0  0  0  0
  -19.7143   -4.7241  -31.8571 H   0  0  0  0  0  0  0  0  0  0  0  0
  -22.2786   -5.6375  -30.8236 H   0  0  0  0  0  0  0  0  0  0  0  0
  1  2  2  0  0  0  0
  1 11  1  0  0  0  0
  2 12  1  0  0  0  0
  3  5  1  0  0  0  0
  3 13  2  0  0  0  0
  4  6  2  0  0  0  0
  4 13  1  0  0  0  0
  5 14  2  0  0  0  0
  6 14  1  0  0  0  0
  7  9  1  0  0  0  0
  7 15  2  0  0  0  0
  8 10  2  0  0  0  0
  8 15  1  0  0  0  0
  9 16  2  0  0  0  0
 10 16  1  0  0  0  0
 11 17  2  0  0  0  0
 12 18  2  0  0  0  0
 13 19  1  0  0  0  0
 14 28  1  0  0  0  0
 15 29  1  0  0  0  0
 16 31  1  0  0  0  0
 17 18  1  0  0  0  0
 17 32  1  0  0  0  0
 18 35  1  0  0  0  0
 19 33  2  0  0  0  0
 19 37  1  0  0  0  0
 20 26  1  0  0  0  0
 20 32  2  0  0  0  0
 20 35  1  0  0  0  0
 21 27  1  0  0  0  0
 21 33  1  0  0  0  0
 21 34  2  0  0  0  0
 22 24  1  0  0  0  0
 22 26  1  0  0  0  0
 23 25  1  0  0  0  0
 23 26  1  0  0  0  0
 24 36  1  0  0  0  0
 25 36  1  0  0  0  0
 28 30  1  0  0  0  0
 29 35  1  0  0  0  0
 30 36  1  0  0  0  0
 31 38  1  0  0  0  0
 31 39  1  0  0  0  0
 31 40  1  0  0  0  0
 34 37  1  0  0  0  0
  1 41  1  0  0  0  0
  2 42  1  0  0  0  0
  3 43  1  0  0  0  0
  4 44  1  0  0  0  0
  5 45  1  0  0  0  0
  6 46  1  0  0  0  0
  7 47  1  0  0  0  0
  8 48  1  0  0  0  0
  9 49  1  0  0  0  0
 10 50  1  0  0  0  0
 11 51  1  0  0  0  0
 12 52  1  0  0  0  0
 22 53  1  0  0  0  0
 22 54  1  0  0  0  0
 23 55  1  0  0  0  0
 23 56  1  0  0  0  0
 24 57  1  0  0  0  0
 24 58  1  0  0  0  0
 25 59  1  0  0  0  0
 25 60  1  0  0  0  0
 26 61  1  0  0  0  0
 27 62  1  0  0  0  0
 27 63  1  0  0  0  0
 27 64  1  0  0  0  0
 28 65  1  0  0  0  0
 28 66  1  0  0  0  0
 29 67  1  0  0  0  0
 29 68  1  0  0  0  0
 30 69  1  0  0  0  0
 30 70  1  0  0  0  0
 36 71  1  0  0  0  0
M  CHG  1  36   1
M  END
> <SMILES>
Cc1noc(n1)-c1ccc(cc1)CCN1CCC(CC1)c1nc2ccccc2n1Cc1ccc(cc1)C(F)(F)F

> <FORMATTED_ID>
H3D-008167

> <MOLFORMULA>
C31H30F3N5O

> <Exact Mass>
545.24

> <XLogP>
8.66

> <TPSA_NOPS>
60.3

> <s_m_source_file>
ligprep_h3d.sdf

> <i_m_source_file_index>
2712

> <i_lp_mmshare_version>
55123

> <i_f3d_flags>
0

> <s_epik_input>
W0NIM11jMW5vYyhuMSktYzJbY0hdW2NIXWMoW2NIXVtjSF0yKVtDSDJdW0NIMl1OM1tDSDJdW0NIMl1bQ0hdKFtDSDJdW0NIMl0zKWMobjQpbihjKGM0NSlbY0hdW2NIXVtjSF1bY0hdNSlbQ0gyXWM2W2NIXVtjSF1jKEMoRikoRilGKVtjSF1bY0hdNg==

> <s_epik_cmdline>
J2VwaWtfcHl0aG9uJywgJy1waHQnLCAnMC41JywgJy1waCcsICc3LjUnLCAnLXRuJywgJzgnLCAnLW1hJywgJzUwMCcsICctaW1hZScsICc8aW5maWxlLm1hZT4nLCAnLW9tYWUnLCAnPG91dGZpbGUubWFlPic=

> <r_lp_tautomer_probability>
1

> <r_epik_Ionization_Penalty>
0.0481065

> <r_epik_Ionization_Penalty_Charging>
0.0392571

> <r_epik_Ionization_Penalty_Neutral>
0.00884933

> <r_epik_State_Penalty>
-0

> <r_epik_Charging_Adjusted_Penalty>
0.0392571

> <i_epik_Tot_Q>
1

> <i_epik_Tot_abs_Q>
1

> <s_lp_Force_Field>
S-OPLS

> <r_lp_Energy>
42.8956

> <b_lp_Chiralities_Consistent>
1

> <s_lp_Variant>
ligprep_h3d.sdf:2712-1

> <ROCS_ShapeQuery>
_7L13

> <ROCS_TanimotoCombo>
0.652 

> <ROCS_ShapeTanimoto>
0.597 

> <ROCS_ColorTanimoto>
0.054 

> <ROCS_RefTversky>
0.787 

> <ROCS_RefColorTversky>
0.113 

> <ROCS_RefTverskyCombo>
0.901 

> <ROCS_FitTversky>
0.712 

> <ROCS_FitColorTversky>
0.094 

> <ROCS_FitTverskyCombo>
0.807 

> <ROCS_ColorScore>
-1.032

> <ROCS_Overlap>
1315.105

> <ROCS_Rank>
282                 

$$$$
ligprep_h3d.sdf:4682_1476
  -OEChem-08212117123D

 66 70  0     1  0  0  0  0  0999 V2000
  -15.1566   -5.4026  -25.1037 C   0  0  0  0  0  0  0  0  0  0  0  0
  -24.9728   -5.0459  -22.5217 C   0  0  0  0  0  0  0  0  0  0  0  0
  -15.8772   -6.4716  -25.6361 C   0  0  0  0  0  0  0  0  0  0  0  0
  -15.7031   -4.1193  -25.1135 C   0  0  0  0  0  0  0  0  0  0  0  0
  -23.7663   -4.4116  -22.8179 C   0  0  0  0  0  0  0  0  0  0  0  0
  -25.9416   -5.2000  -23.5134 C   0  0  0  0  0  0  0  0  0  0  0  0
  -19.5452   -5.5101  -32.7140 C   0  0  0  0  0  0  0  0  0  0  0  0
  -21.3269   -4.8317  -34.1980 C   0  0  0  0  0  0  0  0  0  0  0  0
  -17.1443   -6.2573  -26.1784 C   0  0  0  0  0  0  0  0  0  0  0  0
  -16.9702   -3.9050  -25.6558 C   0  0  0  0  0  0  0  0  0  0  0  0
  -23.5287   -3.9312  -24.1057 C   0  0  0  0  0  0  0  0  0  0  0  0
  -25.7039   -4.7196  -24.8012 C   0  0  0  0  0  0  0  0  0  0  0  0
  -19.0566   -6.3730  -33.6950 C   0  0  0  0  0  0  0  0  0  0  0  0
  -20.8384   -5.6946  -35.1790 C   0  0  0  0  0  0  0  0  0  0  0  0
  -20.6803   -4.7395  -32.9655 C   0  0  0  0  0  0  0  0  0  0  0  0
  -17.6909   -4.9740  -26.1882 C   0  0  0  0  0  0  0  0  0  0  0  0
  -24.4975   -4.0852  -25.0974 C   0  0  0  0  0  0  0  0  0  0  0  0
  -19.7032   -6.4652  -34.9275 C   0  0  0  0  0  0  0  0  0  0  0  0
  -22.2117   -4.4864  -31.0114 C   0  0  0  0  0  0  0  0  0  0  0  0
  -22.7804   -5.1124  -28.6798 C   0  0  0  0  0  0  0  0  0  0  0  0
  -19.9002   -5.6495  -27.3308 C   0  0  0  0  0  0  0  0  0  0  0  0
  -19.8907   -3.6883  -26.5762 C   0  0  0  0  0  0  0  0  0  0  0  0
  -20.7028   -3.9097  -29.0582 C   0  0  0  0  0  0  0  0  0  0  0  0
  -22.2805   -4.6219  -27.3248 C   0  0  1  0  0  0  0  0  0  0  0  0
  -20.7910   -4.4064  -27.6113 C   0  0  0  0  0  0  0  0  0  0  0  0
  -19.9289   -9.0824  -35.8514 C   0  0  0  0  0  0  0  0  0  0  0  0
  -21.2063   -3.8121  -31.9107 C   0  0  0  0  0  0  0  0  0  0  0  0
  -22.9678   -3.3209  -26.9144 C   0  0  0  0  0  0  0  0  0  0  0  0
  -18.9644   -4.7583  -26.7330 N   0  0  0  0  0  0  0  0  0  0  0  0
  -21.9007   -4.4897  -29.6610 N   0  0  0  0  0  0  0  0  0  0  0  0
  -24.2598   -3.6044  -26.3871 N   0  0  0  0  0  0  0  0  0  0  0  0
  -23.2289   -4.9946  -31.4862 O   0  0  0  0  0  0  0  0  0  0  0  0
  -19.5300   -7.0438  -37.4514 O   0  0  0  0  0  0  0  0  0  0  0  0
  -17.6733   -7.7776  -35.9151 O   0  0  0  0  0  0  0  0  0  0  0  0
  -19.0906   -7.5436  -36.1563 S   0  0  0  0  0  0  0  0  0  0  0  0
  -14.1697   -5.5696  -24.6816 H   0  0  0  0  0  0  0  0  0  0  0  0
  -25.1578   -5.4198  -21.5188 H   0  0  0  0  0  0  0  0  0  0  0  0
  -15.4516   -7.4705  -25.6285 H   0  0  0  0  0  0  0  0  0  0  0  0
  -15.1417   -3.2869  -24.6988 H   0  0  0  0  0  0  0  0  0  0  0  0
  -23.0123   -4.2916  -22.0458 H   0  0  0  0  0  0  0  0  0  0  0  0
  -26.8810   -5.6940  -23.2826 H   0  0  0  0  0  0  0  0  0  0  0  0
  -19.0350   -5.4451  -31.7567 H   0  0  0  0  0  0  0  0  0  0  0  0
  -22.2122   -4.2354  -34.4027 H   0  0  0  0  0  0  0  0  0  0  0  0
  -17.6977   -7.0970  -26.5909 H   0  0  0  0  0  0  0  0  0  0  0  0
  -17.3861   -2.9006  -25.6577 H   0  0  0  0  0  0  0  0  0  0  0  0
  -22.5854   -3.4383  -24.3262 H   0  0  0  0  0  0  0  0  0  0  0  0
  -26.4662   -4.8456  -25.5660 H   0  0  0  0  0  0  0  0  0  0  0  0
  -18.1718   -6.9694  -33.4886 H   0  0  0  0  0  0  0  0  0  0  0  0
  -21.3501   -5.7589  -36.1356 H   0  0  0  0  0  0  0  0  0  0  0  0
  -22.6461   -6.1961  -28.7773 H   0  0  0  0  0  0  0  0  0  0  0  0
  -23.8294   -4.8766  -28.8852 H   0  0  0  0  0  0  0  0  0  0  0  0
  -20.3029   -6.3710  -26.6112 H   0  0  0  0  0  0  0  0  0  0  0  0
  -19.4976   -6.1779  -28.1991 H   0  0  0  0  0  0  0  0  0  0  0  0
  -19.4833   -2.7192  -26.8751 H   0  0  0  0  0  0  0  0  0  0  0  0
  -20.2913   -3.6338  -25.5585 H   0  0  0  0  0  0  0  0  0  0  0  0
  -20.7896   -2.8198  -29.1210 H   0  0  0  0  0  0  0  0  0  0  0  0
  -19.8023   -4.2331  -29.5880 H   0  0  0  0  0  0  0  0  0  0  0  0
  -22.4515   -5.3737  -26.5465 H   0  0  0  0  0  0  0  0  0  0  0  0
  -19.5910   -9.8108  -36.5902 H   0  0  0  0  0  0  0  0  0  0  0  0
  -19.6795   -9.4164  -34.8432 H   0  0  0  0  0  0  0  0  0  0  0  0
  -21.0028   -8.9136  -35.9440 H   0  0  0  0  0  0  0  0  0  0  0  0
  -20.3862   -3.4375  -31.2957 H   0  0  0  0  0  0  0  0  0  0  0  0
  -21.6798   -2.9396  -32.3632 H   0  0  0  0  0  0  0  0  0  0  0  0
  -22.3404   -2.8490  -26.1603 H   0  0  0  0  0  0  0  0  0  0  0  0
  -23.0445   -2.7017  -27.8063 H   0  0  0  0  0  0  0  0  0  0  0  0
  -25.0821   -3.4509  -26.9767 H   0  0  0  0  0  0  0  0  0  0  0  0
  1  3  2  0  0  0  0
  1  4  1  0  0  0  0
  2  5  2  0  0  0  0
  2  6  1  0  0  0  0
  3  9  1  0  0  0  0
  4 10  2  0  0  0  0
  5 11  1  0  0  0  0
  6 12  2  0  0  0  0
  7 13  1  0  0  0  0
  7 15  2  0  0  0  0
  8 14  2  0  0  0  0
  8 15  1  0  0  0  0
  9 16  2  0  0  0  0
 10 16  1  0  0  0  0
 11 17  2  0  0  0  0
 12 17  1  0  0  0  0
 13 18  2  0  0  0  0
 14 18  1  0  0  0  0
 15 27  1  0  0  0  0
 16 29  1  0  0  0  0
 17 31  1  0  0  0  0
 18 35  1  0  0  0  0
 19 27  1  0  0  0  0
 19 30  1  0  0  0  0
 19 32  2  0  0  0  0
 20 24  1  0  0  0  0
 20 30  1  0  0  0  0
 21 25  1  0  0  0  0
 21 29  1  0  0  0  0
 22 25  1  0  0  0  0
 22 29  1  0  0  0  0
 23 25  1  0  0  0  0
 23 30  1  0  0  0  0
 24 25  1  0  0  0  0
 24 28  1  0  0  0  0
 26 35  1  0  0  0  0
 28 31  1  0  0  0  0
 33 35  2  0  0  0  0
 34 35  2  0  0  0  0
  1 36  1  0  0  0  0
  2 37  1  0  0  0  0
  3 38  1  0  0  0  0
  4 39  1  0  0  0  0
  5 40  1  0  0  0  0
  6 41  1  0  0  0  0
  7 42  1  0  0  0  0
  8 43  1  0  0  0  0
  9 44  1  0  0  0  0
 10 45  1  0  0  0  0
 11 46  1  0  0  0  0
 12 47  1  0  0  0  0
 13 48  1  0  0  0  0
 14 49  1  0  0  0  0
 20 50  1  0  0  0  0
 20 51  1  0  0  0  0
 21 52  1  0  0  0  0
 21 53  1  0  0  0  0
 22 54  1  0  0  0  0
 22 55  1  0  0  0  0
 23 56  1  0  0  0  0
 23 57  1  0  0  0  0
 24 58  1  0  0  0  0
 26 59  1  0  0  0  0
 26 60  1  0  0  0  0
 26 61  1  0  0  0  0
 27 62  1  0  0  0  0
 27 63  1  0  0  0  0
 28 64  1  0  0  0  0
 28 65  1  0  0  0  0
 31 66  1  0  0  0  0
M  END
> <SMILES>
CS(=O)(=O)c1ccc(cc1)CC(=O)N1CC(CNc2ccccc2)C2(C1)CN(C2)c1ccccc1

> <FORMATTED_ID>
H3D-006052

> <MOLFORMULA>
C28H31N3O3S

> <Exact Mass>
489.21

> <XLogP>
3.41

> <TPSA_NOPS>
78.1

> <s_m_source_file>
ligprep_h3d.sdf

> <i_m_source_file_index>
4682

> <i_lp_mmshare_version>
55123

> <i_f3d_flags>
0

> <s_epik_input>
W0NIM11TKD1PKSg9TyljMVtjSF1bY0hdYyhbY0hdW2NIXTEpW0NIMl1DKD1PKU4oW0NIMl0yKVtDSDJdW0NASF0oW0NIMl1bTkhdYzNbY0hdW2NIXVtjSF1bY0hdW2NIXTMpQzI0W0NIMl1OKFtDSDJdNCljNVtjSF1bY0hdW2NIXVtjSF1bY0hdNQ==

> <s_epik_cmdline>
J2VwaWtfcHl0aG9uJywgJy1waHQnLCAnMC41JywgJy1waCcsICc3LjUnLCAnLXRuJywgJzgnLCAnLW1hJywgJzUwMCcsICctaW1hZScsICc8aW5maWxlLm1hZT4nLCAnLW9tYWUnLCAnPG91dGZpbGUubWFlPic=

> <r_lp_tautomer_probability>
1

> <r_epik_Ionization_Penalty>
0.00291202

> <r_epik_Ionization_Penalty_Charging>
0

> <r_epik_Ionization_Penalty_Neutral>
0.00291202

> <r_epik_State_Penalty>
-0

> <r_epik_Charging_Adjusted_Penalty>
0

> <i_epik_Tot_Q>
0

> <i_epik_Tot_abs_Q>
0

> <s_lp_Force_Field>
S-OPLS

> <r_lp_Energy>
29.7423

> <b_lp_Chiralities_Consistent>
1

> <s_lp_Variant>
ligprep_h3d.sdf:4682-1

> <ROCS_ShapeQuery>
_7L13

> <ROCS_TanimotoCombo>
0.743 

> <ROCS_ShapeTanimoto>
0.677 

> <ROCS_ColorTanimoto>
0.066 

> <ROCS_RefTversky>
0.787 

> <ROCS_RefColorTversky>
0.124 

> <ROCS_RefTverskyCombo>
0.912 

> <ROCS_FitTversky>
0.828 

> <ROCS_FitColorTversky>
0.124 

> <ROCS_FitTverskyCombo>
0.952 

> <ROCS_ColorScore>
-1.120

> <ROCS_Overlap>
1303.751

> <ROCS_Rank>
283                 

$$$$
ligprep_h3d.sdf:1148_1148
  -OEChem-08212117123D

 74 78  0     0  0  0  0  0  0999 V2000
  -19.2546   -3.9275  -32.0152 C   0  0  0  0  0  0  0  0  0  0  0  0
  -20.3718   -6.0684  -32.0886 C   0  0  0  0  0  0  0  0  0  0  0  0
  -18.6470   -4.2025  -33.2402 C   0  0  0  0  0  0  0  0  0  0  0  0
  -19.7642   -6.3434  -33.3137 C   0  0  0  0  0  0  0  0  0  0  0  0
  -16.8077   -6.0688  -26.1953 C   0  0  0  0  0  0  0  0  0  0  0  0
  -22.5987   -3.6516  -28.9155 C   0  0  0  0  0  0  0  0  0  0  0  0
  -20.8036   -4.7112  -25.3203 C   0  0  0  0  0  0  0  0  0  0  0  0
  -17.5852   -7.2411  -26.2509 C   0  0  0  0  0  0  0  0  0  0  0  0
  -20.7587   -4.6521  -27.7368 C   0  0  0  0  0  0  0  0  0  0  0  0
  -20.1170   -4.8605  -31.4393 C   0  0  0  0  0  0  0  0  0  0  0  0
  -20.7499   -4.5739  -30.1627 C   0  0  0  0  0  0  0  0  0  0  0  0
  -18.9018   -5.4105  -33.8895 C   0  0  0  0  0  0  0  0  0  0  0  0
  -21.9818   -3.9319  -30.1373 C   0  0  0  0  0  0  0  0  0  0  0  0
  -20.1380   -4.9340  -28.9655 C   0  0  0  0  0  0  0  0  0  0  0  0
  -22.0095   -4.0006  -27.7034 C   0  0  0  0  0  0  0  0  0  0  0  0
  -20.1651   -5.0034  -26.5169 C   0  0  0  0  0  0  0  0  0  0  0  0
  -22.0248   -4.0717  -25.3882 C   0  0  0  0  0  0  0  0  0  0  0  0
  -17.7201   -5.0468  -26.2925 C   0  0  0  0  0  0  0  0  0  0  0  0
  -19.2864   -7.1712  -36.9056 C   0  0  0  0  0  0  0  0  0  0  0  0
  -22.7471   -3.7382  -24.1726 C   0  0  0  0  0  0  0  0  0  0  0  0
  -21.2791   -5.2034  -37.3881 C   0  0  0  0  0  0  0  0  0  0  0  0
  -20.0214   -4.7817  -36.6635 C   0  0  0  0  0  0  0  0  0  0  0  0
  -20.8872   -6.1643  -38.4834 C   0  0  0  0  0  0  0  0  0  0  0  0
  -22.6823   -3.5220  -31.3938 C   0  0  0  0  0  0  0  0  0  0  0  0
  -18.8072   -5.6248  -29.0718 C   0  0  0  0  0  0  0  0  0  0  0  0
  -17.5257   -3.5835  -26.2941 C   0  0  0  0  0  0  0  0  0  0  0  0
  -26.6027   -7.0856  -22.1123 C   0  0  0  0  0  0  0  0  0  0  0  0
  -18.2520   -5.7046  -35.1992 C   0  0  0  0  0  0  0  0  0  0  0  0
  -25.0013   -3.3734  -23.1351 C   0  0  0  0  0  0  0  0  0  0  0  0
  -25.3883   -4.5937  -22.3220 C   0  0  0  0  0  0  0  0  0  0  0  0
  -18.8910   -6.9884  -26.3737 N   0  0  0  0  0  0  0  0  0  0  0  0
  -22.6315   -3.7157  -26.5437 N   0  0  0  0  0  0  0  0  0  0  0  0
  -18.9411   -5.6456  -26.3960 N   0  0  0  0  0  0  0  0  0  0  0  0
  -19.2228   -5.9316  -36.2603 N   0  0  0  0  0  0  0  0  0  0  0  0
  -24.1451   -3.7099  -24.2498 N   0  0  0  0  0  0  0  0  0  0  0  0
  -18.6092   -8.1473  -36.5812 O   0  0  0  0  0  0  0  0  0  0  0  0
  -22.1320   -3.4719  -23.1239 O   0  0  0  0  0  0  0  0  0  0  0  0
  -27.5850   -5.1823  -23.6107 O   0  0  0  0  0  0  0  0  0  0  0  0
  -25.4279   -6.2923  -24.3084 O   0  0  0  0  0  0  0  0  0  0  0  0
  -20.1705   -7.2926  -37.9485 O   0  0  0  0  0  0  0  0  0  0  0  0
  -26.3007   -5.7707  -23.2706 S   0  0  0  0  0  0  0  0  0  0  0  0
  -19.0454   -2.9816  -31.5211 H   0  0  0  0  0  0  0  0  0  0  0  0
  -21.0421   -6.8055  -31.6529 H   0  0  0  0  0  0  0  0  0  0  0  0
  -17.9756   -3.4703  -33.6810 H   0  0  0  0  0  0  0  0  0  0  0  0
  -19.9688   -7.2870  -33.8129 H   0  0  0  0  0  0  0  0  0  0  0  0
  -15.7356   -5.9797  -26.0979 H   0  0  0  0  0  0  0  0  0  0  0  0
  -23.5646   -3.1478  -28.9106 H   0  0  0  0  0  0  0  0  0  0  0  0
  -20.3655   -4.9725  -24.3609 H   0  0  0  0  0  0  0  0  0  0  0  0
  -17.2546   -8.2689  -26.2068 H   0  0  0  0  0  0  0  0  0  0  0  0
  -21.9576   -5.6966  -36.6815 H   0  0  0  0  0  0  0  0  0  0  0  0
  -21.7985   -4.3332  -37.8016 H   0  0  0  0  0  0  0  0  0  0  0  0
  -19.3936   -4.1548  -37.3047 H   0  0  0  0  0  0  0  0  0  0  0  0
  -20.2859   -4.2060  -35.7713 H   0  0  0  0  0  0  0  0  0  0  0  0
  -21.7803   -6.5506  -38.9843 H   0  0  0  0  0  0  0  0  0  0  0  0
  -20.2564   -5.6878  -39.2418 H   0  0  0  0  0  0  0  0  0  0  0  0
  -22.3829   -2.5078  -31.6793 H   0  0  0  0  0  0  0  0  0  0  0  0
  -22.4443   -4.2041  -32.2181 H   0  0  0  0  0  0  0  0  0  0  0  0
  -23.7706   -3.5436  -31.2631 H   0  0  0  0  0  0  0  0  0  0  0  0
  -18.9549   -6.7061  -29.1290 H   0  0  0  0  0  0  0  0  0  0  0  0
  -18.2677   -5.2901  -29.9621 H   0  0  0  0  0  0  0  0  0  0  0  0
  -18.1819   -5.3947  -28.2045 H   0  0  0  0  0  0  0  0  0  0  0  0
  -17.3795   -3.2033  -27.3183 H   0  0  0  0  0  0  0  0  0  0  0  0
  -18.3885   -3.0510  -25.8589 H   0  0  0  0  0  0  0  0  0  0  0  0
  -16.6486   -3.2821  -25.6962 H   0  0  0  0  0  0  0  0  0  0  0  0
  -27.1694   -7.8680  -22.6195 H   0  0  0  0  0  0  0  0  0  0  0  0
  -25.6409   -7.4707  -21.7701 H   0  0  0  0  0  0  0  0  0  0  0  0
  -27.1732   -6.6821  -21.2744 H   0  0  0  0  0  0  0  0  0  0  0  0
  -17.6052   -4.8744  -35.5159 H   0  0  0  0  0  0  0  0  0  0  0  0
  -17.6153   -6.5982  -35.1415 H   0  0  0  0  0  0  0  0  0  0  0  0
  -25.8818   -2.8629  -23.5374 H   0  0  0  0  0  0  0  0  0  0  0  0
  -24.4473   -2.6656  -22.5111 H   0  0  0  0  0  0  0  0  0  0  0  0
  -26.0350   -4.3060  -21.4877 H   0  0  0  0  0  0  0  0  0  0  0  0
  -24.5105   -5.1131  -21.9256 H   0  0  0  0  0  0  0  0  0  0  0  0
  -24.5950   -3.8731  -25.1446 H   0  0  0  0  0  0  0  0  0  0  0  0
  1  3  1  0  0  0  0
  1 10  2  0  0  0  0
  2  4  2  0  0  0  0
  2 10  1  0  0  0  0
  3 12  2  0  0  0  0
  4 12  1  0  0  0  0
  5  8  1  0  0  0  0
  5 18  2  0  0  0  0
  6 13  2  0  0  0  0
  6 15  1  0  0  0  0
  7 16  1  0  0  0  0
  7 17  2  0  0  0  0
  8 31  2  0  0  0  0
  9 14  1  0  0  0  0
  9 15  1  0  0  0  0
  9 16  2  0  0  0  0
 10 11  1  0  0  0  0
 11 13  1  0  0  0  0
 11 14  2  0  0  0  0
 12 28  1  0  0  0  0
 13 24  1  0  0  0  0
 14 25  1  0  0  0  0
 15 32  2  0  0  0  0
 16 33  1  0  0  0  0
 17 20  1  0  0  0  0
 17 32  1  0  0  0  0
 18 26  1  0  0  0  0
 18 33  1  0  0  0  0
 19 34  1  0  0  0  0
 19 36  2  0  0  0  0
 19 40  1  0  0  0  0
 20 35  1  0  0  0  0
 20 37  2  0  0  0  0
 21 22  1  0  0  0  0
 21 23  1  0  0  0  0
 22 34  1  0  0  0  0
 23 40  1  0  0  0  0
 27 41  1  0  0  0  0
 28 34  1  0  0  0  0
 29 30  1  0  0  0  0
 29 35  1  0  0  0  0
 30 41  1  0  0  0  0
 31 33  1  0  0  0  0
 38 41  2  0  0  0  0
 39 41  2  0  0  0  0
  1 42  1  0  0  0  0
  2 43  1  0  0  0  0
  3 44  1  0  0  0  0
  4 45  1  0  0  0  0
  5 46  1  0  0  0  0
  6 47  1  0  0  0  0
  7 48  1  0  0  0  0
  8 49  1  0  0  0  0
 21 50  1  0  0  0  0
 21 51  1  0  0  0  0
 22 52  1  0  0  0  0
 22 53  1  0  0  0  0
 23 54  1  0  0  0  0
 23 55  1  0  0  0  0
 24 56  1  0  0  0  0
 24 57  1  0  0  0  0
 24 58  1  0  0  0  0
 25 59  1  0  0  0  0
 25 60  1  0  0  0  0
 25 61  1  0  0  0  0
 26 62  1  0  0  0  0
 26 63  1  0  0  0  0
 26 64  1  0  0  0  0
 27 65  1  0  0  0  0
 27 66  1  0  0  0  0
 27 67  1  0  0  0  0
 28 68  1  0  0  0  0
 28 69  1  0  0  0  0
 29 70  1  0  0  0  0
 29 71  1  0  0  0  0
 30 72  1  0  0  0  0
 30 73  1  0  0  0  0
 35 74  1  0  0  0  0
M  END
> <SMILES>
Cc1cc2nc(cc(c2c(c1-c1ccc(cc1)CN1CCCOC1=O)C)-n1nccc1C)C(=O)NCCS(=O)(=O)C

> <FORMATTED_ID>
H3D-007524

> <MOLFORMULA>
C30H33N5O5S

> <Exact Mass>
575.22

> <XLogP>
3.67

> <TPSA_NOPS>
131.9

> <s_m_source_file>
ligprep_h3d.sdf

> <i_m_source_file_index>
1148

> <i_lp_mmshare_version>
55123

> <i_f3d_flags>
0

> <s_epik_input>
Tz1TKD1PKShbQ0gzXSlbQ0gyXVtDSDJdW05IXUMoPU8pYyhuMSlbY0hdYygtbjJuW2NIXVtjSF1jMltDSDNdKWMoYzEzKWMoW0NIM10pYyhjKFtDSDNdKVtjSF0zKS1jNFtjSF1bY0hdYyhbY0hdW2NIXTQpW0NIMl1ONVtDSDJdW0NIMl1bQ0gyXU9DNT1P

> <s_epik_cmdline>
J2VwaWtfcHl0aG9uJywgJy1waHQnLCAnMC41JywgJy1waCcsICc3LjUnLCAnLXRuJywgJzgnLCAnLW1hJywgJzUwMCcsICctaW1hZScsICc8aW5maWxlLm1hZT4nLCAnLW9tYWUnLCAnPG91dGZpbGUubWFlPic=

> <r_lp_tautomer_probability>
1

> <r_epik_Ionization_Penalty>
2.20897e-05

> <r_epik_Ionization_Penalty_Charging>
0

> <r_epik_Ionization_Penalty_Neutral>
2.20897e-05

> <r_epik_State_Penalty>
-0

> <r_epik_Charging_Adjusted_Penalty>
0

> <i_epik_Tot_Q>
0

> <i_epik_Tot_abs_Q>
0

> <s_epik_Chemistry_Notes>
This compound has an ester and may undergo hydrolysis at high or low pH.

> <s_lp_Force_Field>
S-OPLS

> <r_lp_Energy>
47.2112

> <b_lp_Chiralities_Consistent>
1

> <s_lp_Variant>
ligprep_h3d.sdf:1148-1

> <ROCS_ShapeQuery>
_7L13

> <ROCS_TanimotoCombo>
0.699 

> <ROCS_ShapeTanimoto>
0.592 

> <ROCS_ColorTanimoto>
0.107 

> <ROCS_RefTversky>
0.787 

> <ROCS_RefColorTversky>
0.221 

> <ROCS_RefTverskyCombo>
1.009 

> <ROCS_FitTversky>
0.705 

> <ROCS_FitColorTversky>
0.171 

> <ROCS_FitTverskyCombo>
0.875 

> <ROCS_ColorScore>
-2.025

> <ROCS_Overlap>
1315.816

> <ROCS_Rank>
284                 

$$$$
ligprep_h3d.sdf:5350_1810
  -OEChem-08212117123D

 64 69  0     0  0  0  0  0  0999 V2000
  -19.1724   -6.7053  -35.9927 C   0  0  0  0  0  0  0  0  0  0  0  0
  -20.0095   -5.6037  -36.1689 C   0  0  0  0  0  0  0  0  0  0  0  0
  -19.1519   -7.3774  -34.7705 C   0  0  0  0  0  0  0  0  0  0  0  0
  -20.8262   -5.1740  -35.1229 C   0  0  0  0  0  0  0  0  0  0  0  0
  -19.9686   -6.9477  -33.7245 C   0  0  0  0  0  0  0  0  0  0  0  0
  -17.8449   -6.1202  -28.1128 C   0  0  0  0  0  0  0  0  0  0  0  0
  -17.5224   -4.7476  -26.1643 C   0  0  0  0  0  0  0  0  0  0  0  0
  -22.8613   -4.0337  -28.8736 C   0  0  0  0  0  0  0  0  0  0  0  0
  -20.2443   -4.6165  -29.7353 C   0  0  0  0  0  0  0  0  0  0  0  0
  -16.5296   -6.5327  -27.9735 C   0  0  0  0  0  0  0  0  0  0  0  0
  -16.2215   -5.2217  -26.1122 C   0  0  0  0  0  0  0  0  0  0  0  0
  -21.8430   -4.2700  -27.9585 C   0  0  0  0  0  0  0  0  0  0  0  0
  -20.8057   -5.8460  -33.9007 C   0  0  0  0  0  0  0  0  0  0  0  0
  -18.3432   -5.2105  -27.1868 C   0  0  0  0  0  0  0  0  0  0  0  0
  -20.5383   -4.5740  -28.3782 C   0  0  0  0  0  0  0  0  0  0  0  0
  -22.5639   -4.0890  -30.2341 C   0  0  0  0  0  0  0  0  0  0  0  0
  -21.2630   -4.3757  -30.6620 C   0  0  0  0  0  0  0  0  0  0  0  0
  -22.5426   -5.6320  -25.9833 C   0  0  0  0  0  0  0  0  0  0  0  0
  -22.6364   -3.0674  -25.8339 C   0  0  0  0  0  0  0  0  0  0  0  0
  -23.0593   -5.5352  -24.5496 C   0  0  0  0  0  0  0  0  0  0  0  0
  -24.0885   -3.3714  -25.4663 C   0  0  0  0  0  0  0  0  0  0  0  0
  -20.3923   -4.2355  -26.1152 C   0  0  0  0  0  0  0  0  0  0  0  0
  -26.2422   -4.7248  -23.4878 C   0  0  0  0  0  0  0  0  0  0  0  0
  -25.2252   -4.4966  -22.4053 C   0  0  0  0  0  0  0  0  0  0  0  0
  -21.9183   -4.2919  -26.4489 C   0  0  0  0  0  0  0  0  0  0  0  0
  -24.1847   -4.4969  -24.4250 C   0  0  0  0  0  0  0  0  0  0  0  0
  -23.7454   -2.5140  -31.5660 C   0  0  0  0  0  0  0  0  0  0  0  0
  -21.6838   -5.3841  -32.7750 C   0  0  0  0  0  0  0  0  0  0  0  0
  -15.7021   -6.1054  -26.9936 N   0  0  0  0  0  0  0  0  0  0  0  0
  -19.6633   -4.7625  -27.2835 N   0  0  0  0  0  0  0  0  0  0  0  0
  -25.4520   -5.1615  -24.5920 O   0  0  0  0  0  0  0  0  0  0  0  0
  -24.1261   -3.9186  -23.1069 O   0  0  0  0  0  0  0  0  0  0  0  0
  -23.5528   -3.8621  -31.1437 O   0  0  0  0  0  0  0  0  0  0  0  0
  -20.9739   -4.4254  -31.9943 O   0  0  0  0  0  0  0  0  0  0  0  0
  -18.5375   -7.0406  -36.8076 H   0  0  0  0  0  0  0  0  0  0  0  0
  -20.0264   -5.0809  -37.1208 H   0  0  0  0  0  0  0  0  0  0  0  0
  -18.5011   -8.2358  -34.6333 H   0  0  0  0  0  0  0  0  0  0  0  0
  -21.4752   -4.3145  -35.2692 H   0  0  0  0  0  0  0  0  0  0  0  0
  -19.9459   -7.4773  -32.7758 H   0  0  0  0  0  0  0  0  0  0  0  0
  -18.4590   -6.5009  -28.9220 H   0  0  0  0  0  0  0  0  0  0  0  0
  -17.8794   -4.0378  -25.4255 H   0  0  0  0  0  0  0  0  0  0  0  0
  -23.8722   -3.8231  -28.5559 H   0  0  0  0  0  0  0  0  0  0  0  0
  -19.2385   -4.8373  -30.0802 H   0  0  0  0  0  0  0  0  0  0  0  0
  -16.0934   -7.2416  -28.6698 H   0  0  0  0  0  0  0  0  0  0  0  0
  -15.5410   -4.8922  -25.3340 H   0  0  0  0  0  0  0  0  0  0  0  0
  -21.7843   -6.4129  -26.0191 H   0  0  0  0  0  0  0  0  0  0  0  0
  -23.3548   -5.9375  -26.6393 H   0  0  0  0  0  0  0  0  0  0  0  0
  -22.6072   -2.2218  -26.5123 H   0  0  0  0  0  0  0  0  0  0  0  0
  -22.1171   -2.7824  -24.9228 H   0  0  0  0  0  0  0  0  0  0  0  0
  -23.4065   -6.5089  -24.1938 H   0  0  0  0  0  0  0  0  0  0  0  0
  -22.2287   -5.2519  -23.8951 H   0  0  0  0  0  0  0  0  0  0  0  0
  -24.5422   -2.4637  -25.0633 H   0  0  0  0  0  0  0  0  0  0  0  0
  -24.6690   -3.6299  -26.3490 H   0  0  0  0  0  0  0  0  0  0  0  0
  -20.0728   -3.1968  -25.9482 H   0  0  0  0  0  0  0  0  0  0  0  0
  -20.1463   -4.8012  -25.2089 H   0  0  0  0  0  0  0  0  0  0  0  0
  -26.9927   -5.4751  -23.2275 H   0  0  0  0  0  0  0  0  0  0  0  0
  -26.7440   -3.7943  -23.7737 H   0  0  0  0  0  0  0  0  0  0  0  0
  -25.5748   -3.8285  -21.6148 H   0  0  0  0  0  0  0  0  0  0  0  0
  -24.8888   -5.4396  -21.9613 H   0  0  0  0  0  0  0  0  0  0  0  0
  -24.5625   -2.4716  -32.2903 H   0  0  0  0  0  0  0  0  0  0  0  0
  -22.8241   -2.1376  -32.0176 H   0  0  0  0  0  0  0  0  0  0  0  0
  -23.9995   -1.9022  -30.6973 H   0  0  0  0  0  0  0  0  0  0  0  0
  -22.6015   -4.9243  -33.1573 H   0  0  0  0  0  0  0  0  0  0  0  0
  -21.9704   -6.2264  -32.1362 H   0  0  0  0  0  0  0  0  0  0  0  0
  1  2  2  0  0  0  0
  1  3  1  0  0  0  0
  2  4  1  0  0  0  0
  3  5  2  0  0  0  0
  4 13  2  0  0  0  0
  5 13  1  0  0  0  0
  6 10  1  0  0  0  0
  6 14  2  0  0  0  0
  7 11  2  0  0  0  0
  7 14  1  0  0  0  0
  8 12  1  0  0  0  0
  8 16  2  0  0  0  0
  9 15  1  0  0  0  0
  9 17  2  0  0  0  0
 10 29  2  0  0  0  0
 11 29  1  0  0  0  0
 12 15  2  0  0  0  0
 12 25  1  0  0  0  0
 13 28  1  0  0  0  0
 14 30  1  0  0  0  0
 15 30  1  0  0  0  0
 16 17  1  0  0  0  0
 16 33  1  0  0  0  0
 17 34  1  0  0  0  0
 18 20  1  0  0  0  0
 18 25  1  0  0  0  0
 19 21  1  0  0  0  0
 19 25  1  0  0  0  0
 20 26  1  0  0  0  0
 21 26  1  0  0  0  0
 22 25  1  0  0  0  0
 22 30  1  0  0  0  0
 23 24  1  0  0  0  0
 23 31  1  0  0  0  0
 24 32  1  0  0  0  0
 26 31  1  0  0  0  0
 26 32  1  0  0  0  0
 27 33  1  0  0  0  0
 28 34  1  0  0  0  0
  1 35  1  0  0  0  0
  2 36  1  0  0  0  0
  3 37  1  0  0  0  0
  4 38  1  0  0  0  0
  5 39  1  0  0  0  0
  6 40  1  0  0  0  0
  7 41  1  0  0  0  0
  8 42  1  0  0  0  0
  9 43  1  0  0  0  0
 10 44  1  0  0  0  0
 11 45  1  0  0  0  0
 18 46  1  0  0  0  0
 18 47  1  0  0  0  0
 19 48  1  0  0  0  0
 19 49  1  0  0  0  0
 20 50  1  0  0  0  0
 20 51  1  0  0  0  0
 21 52  1  0  0  0  0
 21 53  1  0  0  0  0
 22 54  1  0  0  0  0
 22 55  1  0  0  0  0
 23 56  1  0  0  0  0
 23 57  1  0  0  0  0
 24 58  1  0  0  0  0
 24 59  1  0  0  0  0
 27 60  1  0  0  0  0
 27 61  1  0  0  0  0
 27 62  1  0  0  0  0
 28 63  1  0  0  0  0
 28 64  1  0  0  0  0
M  END
> <SMILES>
COc1cc2c(cc1OCc1ccccc1)N(CC12CCC2(CC1)OCCO2)c1ccncc1

> <FORMATTED_ID>
H3D-014992

> <MOLFORMULA>
C28H30N2O4

> <Exact Mass>
458.22

> <XLogP>
5.8

> <TPSA_NOPS>
53

> <s_m_source_file>
ligprep_h3d.sdf

> <i_m_source_file_index>
5350

> <i_lp_mmshare_version>
55123

> <i_f3d_flags>
0

> <s_epik_input>
W2NIXTFbY0hdW2NIXVtjSF1bY0hdYzFbQ0gyXU9jKGMoW2NIXTIpT1tDSDNdKVtjSF1jKE4oW0NIMl0zKWM0W2NIXVtjSF1uW2NIXVtjSF00KWMyQzM1W0NIMl1bQ0gyXUM2KFtDSDJdW0NIMl01KU9bQ0gyXVtDSDJdTzY=

> <s_epik_cmdline>
J2VwaWtfcHl0aG9uJywgJy1waHQnLCAnMC41JywgJy1waCcsICc3LjUnLCAnLXRuJywgJzgnLCAnLW1hJywgJzUwMCcsICctaW1hZScsICc8aW5maWxlLm1hZT4nLCAnLW9tYWUnLCAnPG91dGZpbGUubWFlPic=

> <r_lp_tautomer_probability>
1

> <r_epik_Ionization_Penalty>
0.184459

> <r_epik_Ionization_Penalty_Charging>
0

> <r_epik_Ionization_Penalty_Neutral>
0.184459

> <r_epik_State_Penalty>
0.173957

> <r_epik_Charging_Adjusted_Penalty>
0.173957

> <i_epik_Tot_Q>
0

> <i_epik_Tot_abs_Q>
0

> <s_lp_Force_Field>
S-OPLS

> <r_lp_Energy>
55.8901

> <b_lp_Chiralities_Consistent>
1

> <s_lp_Variant>
ligprep_h3d.sdf:5350-1

> <ROCS_ShapeQuery>
_7L13

> <ROCS_TanimotoCombo>
0.750 

> <ROCS_ShapeTanimoto>
0.673 

> <ROCS_ColorTanimoto>
0.077 

> <ROCS_RefTversky>
0.787 

> <ROCS_RefColorTversky>
0.158 

> <ROCS_RefTverskyCombo>
0.945 

> <ROCS_FitTversky>
0.823 

> <ROCS_FitColorTversky>
0.131 

> <ROCS_FitTverskyCombo>
0.954 

> <ROCS_ColorScore>
-1.434

> <ROCS_Overlap>
1304.058

> <ROCS_Rank>
285                 

$$$$
ligprep_h3d.sdf:4442_1981
  -OEChem-08212117123D

 67 72  0     1  0  0  0  0  0999 V2000
  -20.3950   -6.2711  -36.5468 C   0  0  0  0  0  0  0  0  0  0  0  0
  -19.8401   -6.9900  -37.6055 C   0  0  0  0  0  0  0  0  0  0  0  0
  -19.5762   -4.7652  -25.7876 C   0  0  0  0  0  0  0  0  0  0  0  0
  -19.6618   -7.9787  -35.0029 C   0  0  0  0  0  0  0  0  0  0  0  0
  -21.7308   -4.0916  -26.6173 C   0  0  0  0  0  0  0  0  0  0  0  0
  -21.0545   -4.9481  -30.7367 C   0  0  0  0  0  0  0  0  0  0  0  0
  -19.1178   -4.7164  -27.0942 C   0  0  0  0  0  0  0  0  0  0  0  0
  -23.0433   -3.8706  -32.4201 C   0  0  0  0  0  0  0  0  0  0  0  0
  -20.3058   -6.7654  -35.2454 C   0  0  0  0  0  0  0  0  0  0  0  0
  -20.9088   -4.4454  -25.5530 C   0  0  0  0  0  0  0  0  0  0  0  0
  -19.1070   -8.6977  -36.0616 C   0  0  0  0  0  0  0  0  0  0  0  0
  -22.0927   -4.7495  -32.9399 C   0  0  0  0  0  0  0  0  0  0  0  0
  -21.1232   -5.2658  -32.0861 C   0  0  0  0  0  0  0  0  0  0  0  0
  -19.1961   -8.2033  -37.3629 C   0  0  0  0  0  0  0  0  0  0  0  0
  -21.1759   -4.0728  -27.8867 C   0  0  0  0  0  0  0  0  0  0  0  0
  -22.0425   -4.0683  -30.3183 C   0  0  0  0  0  0  0  0  0  0  0  0
  -20.8796   -6.0213  -34.1505 C   0  0  0  0  0  0  0  0  0  0  0  0
  -21.4455   -4.4822  -24.1856 C   0  0  0  0  0  0  0  0  0  0  0  0
  -25.2619   -3.1257  -24.3340 C   0  0  0  0  0  0  0  0  0  0  0  0
  -25.2805   -4.0768  -25.5312 C   0  0  0  0  0  0  0  0  0  0  0  0
  -23.5136   -4.2221  -22.8654 C   0  0  0  0  0  0  0  0  0  0  0  0
  -23.5381   -5.7767  -24.8315 C   0  0  0  0  0  0  0  0  0  0  0  0
  -25.0190   -4.0379  -23.1260 C   0  0  2  0  0  0  0  0  0  0  0  0
  -25.0439   -5.4631  -24.9203 C   0  0  1  0  0  0  0  0  0  0  0  0
  -27.4585   -4.7171  -22.1919 C   0  0  0  0  0  0  0  0  0  0  0  0
  -27.3946   -6.9122  -23.4261 C   0  0  0  0  0  0  0  0  0  0  0  0
  -26.9924   -5.4448  -23.4446 C   0  0  0  0  0  0  0  0  0  0  0  0
  -18.4182   -9.9945  -35.7992 C   0  0  0  0  0  0  0  0  0  0  0  0
  -19.8860   -4.3772  -28.1536 N   0  0  0  0  0  0  0  0  0  0  0  0
  -23.0093   -3.5360  -31.1063 N   0  0  0  0  0  0  0  0  0  0  0  0
  -21.9264   -5.2293  -34.2179 N   0  0  0  0  0  0  0  0  0  0  0  0
  -20.3604   -6.0762  -32.8867 N   0  0  0  0  0  0  0  0  0  0  0  0
  -22.7997   -4.7913  -24.0174 N   0  0  0  0  0  0  0  0  0  0  0  0
  -25.5378   -5.3542  -23.5369 N   0  0  0  0  0  0  0  0  0  0  0  0
  -22.0257   -3.7097  -28.9611 N   0  0  0  0  0  0  0  0  0  0  0  0
  -20.6508   -4.2367  -23.2792 O   0  0  0  0  0  0  0  0  0  0  0  0
  -18.6680   -8.8881  -38.3869 F   0  0  0  0  0  0  0  0  0  0  0  0
  -18.4075  -10.3515  -34.4808 F   0  0  0  0  0  0  0  0  0  0  0  0
  -18.9819  -11.0543  -36.4506 F   0  0  0  0  0  0  0  0  0  0  0  0
  -17.1093   -9.9812  -36.1855 F   0  0  0  0  0  0  0  0  0  0  0  0
  -20.8938   -5.3267  -36.7519 H   0  0  0  0  0  0  0  0  0  0  0  0
  -19.9083   -6.6057  -38.6190 H   0  0  0  0  0  0  0  0  0  0  0  0
  -18.9082   -5.0457  -24.9802 H   0  0  0  0  0  0  0  0  0  0  0  0
  -19.5887   -8.3701  -33.9900 H   0  0  0  0  0  0  0  0  0  0  0  0
  -22.7743   -3.8380  -26.4541 H   0  0  0  0  0  0  0  0  0  0  0  0
  -20.2951   -5.3546  -30.0807 H   0  0  0  0  0  0  0  0  0  0  0  0
  -18.0865   -4.9571  -27.3304 H   0  0  0  0  0  0  0  0  0  0  0  0
  -23.8297   -3.4227  -33.0146 H   0  0  0  0  0  0  0  0  0  0  0  0
  -24.4946   -2.3519  -24.4421 H   0  0  0  0  0  0  0  0  0  0  0  0
  -26.2323   -2.6224  -24.2509 H   0  0  0  0  0  0  0  0  0  0  0  0
  -26.2597   -4.0304  -26.0222 H   0  0  0  0  0  0  0  0  0  0  0  0
  -24.5240   -3.8065  -26.2755 H   0  0  0  0  0  0  0  0  0  0  0  0
  -23.0543   -3.2656  -22.5903 H   0  0  0  0  0  0  0  0  0  0  0  0
  -23.3543   -4.9094  -22.0247 H   0  0  0  0  0  0  0  0  0  0  0  0
  -23.3797   -6.7557  -24.3620 H   0  0  0  0  0  0  0  0  0  0  0  0
  -23.1113   -5.8239  -25.8387 H   0  0  0  0  0  0  0  0  0  0  0  0
  -25.4957   -3.6548  -22.2169 H   0  0  0  0  0  0  0  0  0  0  0  0
  -25.5410   -6.2554  -25.4909 H   0  0  0  0  0  0  0  0  0  0  0  0
  -27.0442   -5.1843  -21.2926 H   0  0  0  0  0  0  0  0  0  0  0  0
  -27.1512   -3.6653  -22.2027 H   0  0  0  0  0  0  0  0  0  0  0  0
  -28.5510   -4.7397  -22.1132 H   0  0  0  0  0  0  0  0  0  0  0  0
  -26.9791   -7.4176  -22.5473 H   0  0  0  0  0  0  0  0  0  0  0  0
  -27.0274   -7.4284  -24.3191 H   0  0  0  0  0  0  0  0  0  0  0  0
  -28.4835   -7.0286  -23.3882 H   0  0  0  0  0  0  0  0  0  0  0  0
  -27.4184   -4.9609  -24.3303 H   0  0  0  0  0  0  0  0  0  0  0  0
  -19.5574   -6.6158  -32.5908 H   0  0  0  0  0  0  0  0  0  0  0  0
  -22.7602   -3.0666  -28.6903 H   0  0  0  0  0  0  0  0  0  0  0  0
  1  2  1  0  0  0  0
  1  9  2  0  0  0  0
  2 14  2  0  0  0  0
  3  7  1  0  0  0  0
  3 10  2  0  0  0  0
  4  9  1  0  0  0  0
  4 11  2  0  0  0  0
  5 10  1  0  0  0  0
  5 15  2  0  0  0  0
  6 13  1  0  0  0  0
  6 16  2  0  0  0  0
  7 29  2  0  0  0  0
  8 12  1  0  0  0  0
  8 30  2  0  0  0  0
  9 17  1  0  0  0  0
 10 18  1  0  0  0  0
 11 14  1  0  0  0  0
 11 28  1  0  0  0  0
 12 13  2  0  0  0  0
 12 31  1  0  0  0  0
 13 32  1  0  0  0  0
 14 37  1  0  0  0  0
 15 29  1  0  0  0  0
 15 35  1  0  0  0  0
 16 30  1  0  0  0  0
 16 35  1  0  0  0  0
 17 31  2  0  0  0  0
 17 32  1  0  0  0  0
 18 33  1  0  0  0  0
 18 36  2  0  0  0  0
 19 20  1  0  0  0  0
 19 23  1  0  0  0  0
 20 24  1  0  0  0  0
 21 23  1  0  0  0  0
 21 33  1  0  0  0  0
 22 24  1  0  0  0  0
 22 33  1  0  0  0  0
 23 34  1  0  0  0  0
 24 34  1  0  0  0  0
 25 27  1  0  0  0  0
 26 27  1  0  0  0  0
 27 34  1  0  0  0  0
 28 38  1  0  0  0  0
 28 39  1  0  0  0  0
 28 40  1  0  0  0  0
  1 41  1  0  0  0  0
  2 42  1  0  0  0  0
  3 43  1  0  0  0  0
  4 44  1  0  0  0  0
  5 45  1  0  0  0  0
  6 46  1  0  0  0  0
  7 47  1  0  0  0  0
  8 48  1  0  0  0  0
 19 49  1  0  0  0  0
 19 50  1  0  0  0  0
 20 51  1  0  0  0  0
 20 52  1  0  0  0  0
 21 53  1  0  0  0  0
 21 54  1  0  0  0  0
 22 55  1  0  0  0  0
 22 56  1  0  0  0  0
 23 57  1  0  0  0  0
 24 58  1  0  0  0  0
 25 59  1  0  0  0  0
 25 60  1  0  0  0  0
 25 61  1  0  0  0  0
 26 62  1  0  0  0  0
 26 63  1  0  0  0  0
 26 64  1  0  0  0  0
 27 65  1  0  0  0  0
 32 66  1  0  0  0  0
 35 67  1  0  0  0  0
M  END
> <SMILES>
CC(C)N1C2CCC1CN(C2)C(=O)c1ccnc(c1)Nc1cc2[nH]c(nc2cn1)-c1ccc(c(c1)C(F)(F)F)F

> <FORMATTED_ID>
H3D-004091

> <MOLFORMULA>
C28H27F4N7O

> <Exact Mass>
553.22

> <XLogP>
5.8

> <TPSA_NOPS>
90

> <s_m_source_file>
ligprep_h3d.sdf

> <i_m_source_file_index>
4442

> <i_lp_mmshare_version>
55123

> <i_f3d_flags>
0

> <s_epik_input>
W0NIM11bQ0hdKFtDSDNdKU4oW0NASF0xMilbQ0BASF0oW0NIMl1bQ0gyXTEpW0NIMl1OKFtDSDJdMilDKD1PKWMzW2NIXVtjSF1uYyhbY0hdMylbTkhdYyhbY0hdNClbbkhdW2NIXWMoYzQ1KW5jKG41KS1jNltjSF1bY0hdYyhGKWMoW2NIXTYpQyhGKShGKUY=

> <s_epik_cmdline>
J2VwaWtfcHl0aG9uJywgJy1waHQnLCAnMC41JywgJy1waCcsICc3LjUnLCAnLXRuJywgJzgnLCAnLW1hJywgJzUwMCcsICctaW1hZScsICc8aW5maWxlLm1hZT4nLCAnLW9tYWUnLCAnPG91dGZpbGUubWFlPic=

> <r_lp_tautomer_probability>
1

> <r_epik_Ionization_Penalty>
0.313431

> <r_epik_Ionization_Penalty_Charging>
0.0947018

> <r_epik_Ionization_Penalty_Neutral>
0.218729

> <r_epik_State_Penalty>
-0

> <r_epik_Charging_Adjusted_Penalty>
0.0947018

> <i_epik_Tot_Q>
0

> <i_epik_Tot_abs_Q>
0

> <s_lp_Force_Field>
S-OPLS

> <r_lp_Energy>
68.1859

> <b_lp_Chiralities_Consistent>
1

> <s_lp_Variant>
ligprep_h3d.sdf:4442-1

> <ROCS_ShapeQuery>
_7L13

> <ROCS_TanimotoCombo>
0.746 

> <ROCS_ShapeTanimoto>
0.589 

> <ROCS_ColorTanimoto>
0.157 

> <ROCS_RefTversky>
0.787 

> <ROCS_RefColorTversky>
0.386 

> <ROCS_RefTverskyCombo>
1.173 

> <ROCS_FitTversky>
0.700 

> <ROCS_FitColorTversky>
0.209 

> <ROCS_FitTverskyCombo>
0.910 

> <ROCS_ColorScore>
-3.648

> <ROCS_Overlap>
1315.399

> <ROCS_Rank>
286                 

$$$$
ligprep_h3d.sdf:5307_1060
  -OEChem-08212117123D

 76 81  0     0  0  0  0  0  0999 V2000
  -19.3967   -6.0965  -34.7671 C   0  0  0  0  0  0  0  0  0  0  0  0
  -20.2116   -4.9744  -34.9175 C   0  0  0  0  0  0  0  0  0  0  0  0
  -19.4680   -6.8591  -33.6014 C   0  0  0  0  0  0  0  0  0  0  0  0
  -21.0977   -4.6149  -33.9020 C   0  0  0  0  0  0  0  0  0  0  0  0
  -20.3541   -6.4996  -32.5859 C   0  0  0  0  0  0  0  0  0  0  0  0
  -23.5743   -3.9242  -27.7432 C   0  0  0  0  0  0  0  0  0  0  0  0
  -20.9001   -4.4729  -28.4603 C   0  0  0  0  0  0  0  0  0  0  0  0
  -15.1666   -5.9436  -25.9464 C   0  0  0  0  0  0  0  0  0  0  0  0
  -15.1962   -7.1953  -25.3895 C   0  0  0  0  0  0  0  0  0  0  0  0
  -22.6326   -4.2448  -26.7731 C   0  0  0  0  0  0  0  0  0  0  0  0
  -21.1690   -5.3775  -32.7362 C   0  0  0  0  0  0  0  0  0  0  0  0
  -21.3118   -4.5149  -27.1362 C   0  0  0  0  0  0  0  0  0  0  0  0
  -23.1741   -3.8782  -29.0801 C   0  0  0  0  0  0  0  0  0  0  0  0
  -21.8459   -4.1508  -29.4357 C   0  0  0  0  0  0  0  0  0  0  0  0
  -17.2805   -6.4750  -25.5366 C   0  0  0  0  0  0  0  0  0  0  0  0
  -18.7560   -6.2892  -25.4965 C   0  0  0  0  0  0  0  0  0  0  0  0
  -18.2829   -4.1257  -26.4929 C   0  0  0  0  0  0  0  0  0  0  0  0
  -16.9506   -4.3199  -26.5179 C   0  0  0  0  0  0  0  0  0  0  0  0
  -19.2376   -5.1206  -25.9732 C   0  0  0  0  0  0  0  0  0  0  0  0
  -23.8509   -5.4594  -24.9281 C   0  0  0  0  0  0  0  0  0  0  0  0
  -23.2851   -3.0103  -24.6719 C   0  0  0  0  0  0  0  0  0  0  0  0
  -21.3984   -4.7355  -24.8060 C   0  0  0  0  0  0  0  0  0  0  0  0
  -24.1467   -5.5379  -23.4347 C   0  0  0  0  0  0  0  0  0  0  0  0
  -23.5848   -3.1065  -23.1803 C   0  0  0  0  0  0  0  0  0  0  0  0
  -22.8346   -4.3546  -25.2749 C   0  0  0  0  0  0  0  0  0  0  0  0
  -27.2724   -5.0895  -22.3987 C   0  0  0  0  0  0  0  0  0  0  0  0
  -26.8496   -4.9642  -19.9347 C   0  0  0  0  0  0  0  0  0  0  0  0
  -24.2391   -2.1833  -30.3642 C   0  0  0  0  0  0  0  0  0  0  0  0
  -22.1218   -4.9912  -31.6433 C   0  0  0  0  0  0  0  0  0  0  0  0
  -25.0348   -4.2411  -21.5007 C   0  0  0  0  0  0  0  0  0  0  0  0
  -26.2094   -5.2086  -21.3051 C   0  0  0  0  0  0  0  0  0  0  0  0
  -16.4749   -5.5151  -26.0283 N   0  0  0  0  0  0  0  0  0  0  0  0
  -16.5158   -7.4982  -25.1468 N   0  3  0  0  0  0  0  0  0  0  0  0
  -20.5505   -4.8110  -26.0007 N   0  0  0  0  0  0  0  0  0  0  0  0
  -24.6091   -4.1887  -22.9424 N   0  3  0  0  0  0  0  0  0  0  0  0
  -25.7193   -6.5519  -21.3224 O   0  0  0  0  0  0  0  0  0  0  0  0
  -24.0911   -3.5635  -30.0386 O   0  0  0  0  0  0  0  0  0  0  0  0
  -21.4628   -4.1032  -30.7438 O   0  0  0  0  0  0  0  0  0  0  0  0
  -18.7077   -6.3770  -35.5585 H   0  0  0  0  0  0  0  0  0  0  0  0
  -20.1569   -4.3811  -35.8256 H   0  0  0  0  0  0  0  0  0  0  0  0
  -18.8345   -7.7334  -33.4844 H   0  0  0  0  0  0  0  0  0  0  0  0
  -21.7286   -3.7389  -34.0278 H   0  0  0  0  0  0  0  0  0  0  0  0
  -20.4028   -7.0996  -31.6810 H   0  0  0  0  0  0  0  0  0  0  0  0
  -24.6035   -3.7127  -27.4701 H   0  0  0  0  0  0  0  0  0  0  0  0
  -19.8755   -4.6809  -28.7490 H   0  0  0  0  0  0  0  0  0  0  0  0
  -14.3881   -5.2936  -26.2985 H   0  0  0  0  0  0  0  0  0  0  0  0
  -14.4630   -7.9309  -25.1240 H   0  0  0  0  0  0  0  0  0  0  0  0
  -19.3850   -7.0748  -25.0965 H   0  0  0  0  0  0  0  0  0  0  0  0
  -18.6878   -3.1918  -26.8725 H   0  0  0  0  0  0  0  0  0  0  0  0
  -16.2412   -3.5959  -26.8971 H   0  0  0  0  0  0  0  0  0  0  0  0
  -23.4913   -6.4365  -25.2765 H   0  0  0  0  0  0  0  0  0  0  0  0
  -24.7957   -5.2825  -25.4597 H   0  0  0  0  0  0  0  0  0  0  0  0
  -24.1879   -2.6511  -25.1843 H   0  0  0  0  0  0  0  0  0  0  0  0
  -22.5217   -2.2390  -24.8375 H   0  0  0  0  0  0  0  0  0  0  0  0
  -20.9849   -3.9907  -24.1152 H   0  0  0  0  0  0  0  0  0  0  0  0
  -21.3822   -5.7026  -24.2887 H   0  0  0  0  0  0  0  0  0  0  0  0
  -24.9559   -6.2507  -23.2436 H   0  0  0  0  0  0  0  0  0  0  0  0
  -23.2677   -5.8238  -22.8479 H   0  0  0  0  0  0  0  0  0  0  0  0
  -22.6963   -3.3526  -22.5896 H   0  0  0  0  0  0  0  0  0  0  0  0
  -24.0117   -2.1662  -22.8161 H   0  0  0  0  0  0  0  0  0  0  0  0
  -26.8473   -5.2590  -23.3932 H   0  0  0  0  0  0  0  0  0  0  0  0
  -27.7311   -4.0936  -22.3859 H   0  0  0  0  0  0  0  0  0  0  0  0
  -28.0939   -5.7966  -22.2409 H   0  0  0  0  0  0  0  0  0  0  0  0
  -26.1045   -5.0448  -19.1347 H   0  0  0  0  0  0  0  0  0  0  0  0
  -27.3128   -3.9736  -19.8773 H   0  0  0  0  0  0  0  0  0  0  0  0
  -27.6144   -5.7194  -19.7200 H   0  0  0  0  0  0  0  0  0  0  0  0
  -25.0000   -2.0708  -31.1403 H   0  0  0  0  0  0  0  0  0  0  0  0
  -23.2834   -1.7864  -30.7156 H   0  0  0  0  0  0  0  0  0  0  0  0
  -24.5508   -1.6386  -29.4698 H   0  0  0  0  0  0  0  0  0  0  0  0
  -23.0068   -4.4926  -32.0532 H   0  0  0  0  0  0  0  0  0  0  0  0
  -22.4590   -5.8758  -31.0923 H   0  0  0  0  0  0  0  0  0  0  0  0
  -24.1504   -4.5680  -20.9441 H   0  0  0  0  0  0  0  0  0  0  0  0
  -25.2896   -3.2166  -21.2120 H   0  0  0  0  0  0  0  0  0  0  0  0
  -16.8551   -8.3634  -24.7355 H   0  0  0  0  0  0  0  0  0  0  0  0
  -25.4484   -3.9380  -23.4830 H   0  0  0  0  0  0  0  0  0  0  0  0
  -26.4825   -7.1216  -21.1472 H   0  0  0  0  0  0  0  0  0  0  0  0
  1  2  2  0  0  0  0
  1  3  1  0  0  0  0
  2  4  1  0  0  0  0
  3  5  2  0  0  0  0
  4 11  2  0  0  0  0
  5 11  1  0  0  0  0
  6 10  1  0  0  0  0
  6 13  2  0  0  0  0
  7 12  1  0  0  0  0
  7 14  2  0  0  0  0
  8  9  2  0  0  0  0
  8 32  1  0  0  0  0
  9 33  1  0  0  0  0
 10 12  2  0  0  0  0
 10 25  1  0  0  0  0
 11 29  1  0  0  0  0
 12 34  1  0  0  0  0
 13 14  1  0  0  0  0
 13 37  1  0  0  0  0
 14 38  1  0  0  0  0
 15 16  1  0  0  0  0
 15 32  1  0  0  0  0
 15 33  2  0  0  0  0
 16 19  2  0  0  0  0
 17 18  2  0  0  0  0
 17 19  1  0  0  0  0
 18 32  1  0  0  0  0
 19 34  1  0  0  0  0
 20 23  1  0  0  0  0
 20 25  1  0  0  0  0
 21 24  1  0  0  0  0
 21 25  1  0  0  0  0
 22 25  1  0  0  0  0
 22 34  1  0  0  0  0
 23 35  1  0  0  0  0
 24 35  1  0  0  0  0
 26 31  1  0  0  0  0
 27 31  1  0  0  0  0
 28 37  1  0  0  0  0
 29 38  1  0  0  0  0
 30 31  1  0  0  0  0
 30 35  1  0  0  0  0
 31 36  1  0  0  0  0
  1 39  1  0  0  0  0
  2 40  1  0  0  0  0
  3 41  1  0  0  0  0
  4 42  1  0  0  0  0
  5 43  1  0  0  0  0
  6 44  1  0  0  0  0
  7 45  1  0  0  0  0
  8 46  1  0  0  0  0
  9 47  1  0  0  0  0
 16 48  1  0  0  0  0
 17 49  1  0  0  0  0
 18 50  1  0  0  0  0
 20 51  1  0  0  0  0
 20 52  1  0  0  0  0
 21 53  1  0  0  0  0
 21 54  1  0  0  0  0
 22 55  1  0  0  0  0
 22 56  1  0  0  0  0
 23 57  1  0  0  0  0
 23 58  1  0  0  0  0
 24 59  1  0  0  0  0
 24 60  1  0  0  0  0
 26 61  1  0  0  0  0
 26 62  1  0  0  0  0
 26 63  1  0  0  0  0
 27 64  1  0  0  0  0
 27 65  1  0  0  0  0
 27 66  1  0  0  0  0
 28 67  1  0  0  0  0
 28 68  1  0  0  0  0
 28 69  1  0  0  0  0
 29 70  1  0  0  0  0
 29 71  1  0  0  0  0
 30 72  1  0  0  0  0
 30 73  1  0  0  0  0
 33 74  1  0  0  0  0
 35 75  1  0  0  0  0
 36 76  1  0  0  0  0
M  CHG  2  33   1  35   1
M  END
> <SMILES>
COc1cc2c(cc1OCc1ccccc1)N(CC12CCN(CC1)CC(C)(C)O)c1ccn2ccnc2c1

> <FORMATTED_ID>
H3D-014268

> <MOLFORMULA>
C31H36N4O3

> <Exact Mass>
512.28

> <XLogP>
6.15

> <TPSA_NOPS>
62.5

> <s_m_source_file>
ligprep_h3d.sdf

> <i_m_source_file_index>
5307

> <i_lp_mmshare_version>
55123

> <i_f3d_flags>
0

> <s_epik_input>
W2NIXTFbY0hdW2NIXVtjSF1bY0hdYzFbQ0gyXU9jKGMoW2NIXTIpT1tDSDNdKVtjSF1jKE4oW0NIMl0zKWMoW2NIXVtjSF00KVtjSF1jKG40NSluW2NIXVtjSF01KWMyQzM2W0NIMl1bQ0gyXU4oW0NIMl1bQ0gyXTYpW0NIMl1DKFtDSDNdKShbQ0gzXSlbT0hd

> <s_epik_cmdline>
J2VwaWtfcHl0aG9uJywgJy1waHQnLCAnMC41JywgJy1waCcsICc3LjUnLCAnLXRuJywgJzgnLCAnLW1hJywgJzUwMCcsICctaW1hZScsICc8aW5maWxlLm1hZT4nLCAnLW9tYWUnLCAnPG91dGZpbGUubWFlPic=

> <r_lp_tautomer_probability>
1

> <r_epik_Ionization_Penalty>
0.421694

> <r_epik_Ionization_Penalty_Charging>
0.0243449

> <r_epik_Ionization_Penalty_Neutral>
0.397349

> <r_epik_State_Penalty>
0.391211

> <r_epik_Charging_Adjusted_Penalty>
0.415556

> <i_epik_Tot_Q>
2

> <i_epik_Tot_abs_Q>
2

> <s_lp_Force_Field>
S-OPLS

> <r_lp_Energy>
73.8338

> <b_lp_Chiralities_Consistent>
1

> <s_lp_Variant>
ligprep_h3d.sdf:5307-1

> <ROCS_ShapeQuery>
_7L13

> <ROCS_TanimotoCombo>
0.705 

> <ROCS_ShapeTanimoto>
0.622 

> <ROCS_ColorTanimoto>
0.083 

> <ROCS_RefTversky>
0.787 

> <ROCS_RefColorTversky>
0.198 

> <ROCS_RefTverskyCombo>
0.985 

> <ROCS_FitTversky>
0.748 

> <ROCS_FitColorTversky>
0.125 

> <ROCS_FitTverskyCombo>
0.873 

> <ROCS_ColorScore>
-1.841

> <ROCS_Overlap>
1310.036

> <ROCS_Rank>
287                 

$$$$
ligprep_h3d.sdf:4845_1507
  -OEChem-08212117123D

 67 71  0     1  0  0  0  0  0999 V2000
  -19.2888   -5.6015  -32.5800 C   0  0  0  0  0  0  0  0  0  0  0  0
  -21.0459   -4.9924  -34.1224 C   0  0  0  0  0  0  0  0  0  0  0  0
  -17.0374   -6.1545  -25.9728 C   0  0  0  0  0  0  0  0  0  0  0  0
  -16.9197   -3.7880  -25.5006 C   0  0  0  0  0  0  0  0  0  0  0  0
  -18.7595   -6.4765  -33.5286 C   0  0  0  0  0  0  0  0  0  0  0  0
  -20.5165   -5.8674  -35.0710 C   0  0  0  0  0  0  0  0  0  0  0  0
  -23.5129   -3.9050  -24.1102 C   0  0  0  0  0  0  0  0  0  0  0  0
  -25.6553   -4.7510  -24.8393 C   0  0  0  0  0  0  0  0  0  0  0  0
  -15.7803   -6.3323  -25.3954 C   0  0  0  0  0  0  0  0  0  0  0  0
  -15.6625   -3.9658  -24.9230 C   0  0  0  0  0  0  0  0  0  0  0  0
  -23.7730   -4.3602  -22.8177 C   0  0  0  0  0  0  0  0  0  0  0  0
  -25.9154   -5.2063  -23.5467 C   0  0  0  0  0  0  0  0  0  0  0  0
  -20.4321   -4.8594  -32.8769 C   0  0  0  0  0  0  0  0  0  0  0  0
  -17.6072   -4.8823  -26.0255 C   0  0  0  0  0  0  0  0  0  0  0  0
  -19.3732   -6.6094  -34.7741 C   0  0  0  0  0  0  0  0  0  0  0  0
  -24.4541   -4.1004  -25.1211 C   0  0  0  0  0  0  0  0  0  0  0  0
  -15.0928   -5.2380  -24.8704 C   0  0  0  0  0  0  0  0  0  0  0  0
  -24.9742   -5.0109  -22.5359 C   0  0  0  0  0  0  0  0  0  0  0  0
  -22.0157   -4.5916  -30.9670 C   0  0  0  0  0  0  0  0  0  0  0  0
  -19.3173   -7.7489  -37.0152 C   0  0  0  0  0  0  0  0  0  0  0  0
  -22.6301   -5.1753  -28.6360 C   0  0  0  0  0  0  0  0  0  0  0  0
  -19.7746   -5.6260  -27.2054 C   0  0  0  0  0  0  0  0  0  0  0  0
  -19.8204   -3.6484  -26.4964 C   0  0  0  0  0  0  0  0  0  0  0  0
  -20.5666   -3.9417  -28.9916 C   0  0  0  0  0  0  0  0  0  0  0  0
  -22.1730   -4.6446  -27.2810 C   0  0  1  0  0  0  0  0  0  0  0  0
  -20.6812   -4.4070  -27.5362 C   0  0  0  0  0  0  0  0  0  0  0  0
  -18.4591   -8.7635  -37.7284 C   0  0  0  0  0  0  0  0  0  0  0  0
  -21.0012   -3.9187  -31.8570 C   0  0  0  0  0  0  0  0  0  0  0  0
  -22.8945   -3.3482  -26.9176 C   0  0  0  0  0  0  0  0  0  0  0  0
  -18.8706   -4.7036  -26.6059 N   0  0  0  0  0  0  0  0  0  0  0  0
  -21.7382   -4.5583  -29.6097 N   0  0  0  0  0  0  0  0  0  0  0  0
  -18.8438   -7.4843  -35.7231 N   0  0  0  0  0  0  0  0  0  0  0  0
  -24.1937   -3.6445  -26.4155 N   0  0  0  0  0  0  0  0  0  0  0  0
  -23.0112   -5.1299  -31.4545 O   0  0  0  0  0  0  0  0  0  0  0  0
  -20.2956   -7.2552  -37.5666 O   0  0  0  0  0  0  0  0  0  0  0  0
  -13.8855   -5.4087  -24.3159 F   0  0  0  0  0  0  0  0  0  0  0  0
  -25.2240   -5.4481  -21.2947 F   0  0  0  0  0  0  0  0  0  0  0  0
  -18.8054   -5.5058  -31.6113 H   0  0  0  0  0  0  0  0  0  0  0  0
  -21.9373   -4.4187  -34.3619 H   0  0  0  0  0  0  0  0  0  0  0  0
  -17.5645   -7.0142  -26.3786 H   0  0  0  0  0  0  0  0  0  0  0  0
  -17.3542   -2.7922  -25.5365 H   0  0  0  0  0  0  0  0  0  0  0  0
  -17.8679   -7.0495  -33.2865 H   0  0  0  0  0  0  0  0  0  0  0  0
  -21.0034   -5.9640  -36.0382 H   0  0  0  0  0  0  0  0  0  0  0  0
  -22.5735   -3.3995  -24.3188 H   0  0  0  0  0  0  0  0  0  0  0  0
  -26.3959   -4.9083  -25.6193 H   0  0  0  0  0  0  0  0  0  0  0  0
  -15.3365   -7.3226  -25.3540 H   0  0  0  0  0  0  0  0  0  0  0  0
  -15.1267   -3.1141  -24.5145 H   0  0  0  0  0  0  0  0  0  0  0  0
  -23.0404   -4.2085  -22.0305 H   0  0  0  0  0  0  0  0  0  0  0  0
  -26.8506   -5.7126  -23.3267 H   0  0  0  0  0  0  0  0  0  0  0  0
  -22.4731   -6.2582  -28.7051 H   0  0  0  0  0  0  0  0  0  0  0  0
  -23.6779   -4.9645  -28.8722 H   0  0  0  0  0  0  0  0  0  0  0  0
  -20.1813   -6.3386  -26.4793 H   0  0  0  0  0  0  0  0  0  0  0  0
  -19.3407   -6.1661  -28.0512 H   0  0  0  0  0  0  0  0  0  0  0  0
  -19.4239   -2.6787  -26.8077 H   0  0  0  0  0  0  0  0  0  0  0  0
  -20.2470   -3.5785  -25.4903 H   0  0  0  0  0  0  0  0  0  0  0  0
  -20.6723   -2.8555  -29.0818 H   0  0  0  0  0  0  0  0  0  0  0  0
  -19.6474   -4.2597  -29.4917 H   0  0  0  0  0  0  0  0  0  0  0  0
  -22.3492   -5.3818  -26.4899 H   0  0  0  0  0  0  0  0  0  0  0  0
  -18.8369   -9.7709  -37.5325 H   0  0  0  0  0  0  0  0  0  0  0  0
  -17.4286   -8.6952  -37.3682 H   0  0  0  0  0  0  0  0  0  0  0  0
  -18.4704   -8.5710  -38.8052 H   0  0  0  0  0  0  0  0  0  0  0  0
  -20.2037   -3.5145  -31.2311 H   0  0  0  0  0  0  0  0  0  0  0  0
  -21.4796   -3.0659  -32.3410 H   0  0  0  0  0  0  0  0  0  0  0  0
  -22.2949   -2.8472  -26.1597 H   0  0  0  0  0  0  0  0  0  0  0  0
  -22.9607   -2.7510  -27.8253 H   0  0  0  0  0  0  0  0  0  0  0  0
  -18.0013   -8.0015  -35.4464 H   0  0  0  0  0  0  0  0  0  0  0  0
  -25.0038   -3.5203  -27.0282 H   0  0  0  0  0  0  0  0  0  0  0  0
  1  5  1  0  0  0  0
  1 13  2  0  0  0  0
  2  6  2  0  0  0  0
  2 13  1  0  0  0  0
  3  9  1  0  0  0  0
  3 14  2  0  0  0  0
  4 10  2  0  0  0  0
  4 14  1  0  0  0  0
  5 15  2  0  0  0  0
  6 15  1  0  0  0  0
  7 11  1  0  0  0  0
  7 16  2  0  0  0  0
  8 12  2  0  0  0  0
  8 16  1  0  0  0  0
  9 17  2  0  0  0  0
 10 17  1  0  0  0  0
 11 18  2  0  0  0  0
 12 18  1  0  0  0  0
 13 28  1  0  0  0  0
 14 30  1  0  0  0  0
 15 32  1  0  0  0  0
 16 33  1  0  0  0  0
 17 36  1  0  0  0  0
 18 37  1  0  0  0  0
 19 28  1  0  0  0  0
 19 31  1  0  0  0  0
 19 34  2  0  0  0  0
 20 27  1  0  0  0  0
 20 32  1  0  0  0  0
 20 35  2  0  0  0  0
 21 25  1  0  0  0  0
 21 31  1  0  0  0  0
 22 26  1  0  0  0  0
 22 30  1  0  0  0  0
 23 26  1  0  0  0  0
 23 30  1  0  0  0  0
 24 26  1  0  0  0  0
 24 31  1  0  0  0  0
 25 26  1  0  0  0  0
 25 29  1  0  0  0  0
 29 33  1  0  0  0  0
  1 38  1  0  0  0  0
  2 39  1  0  0  0  0
  3 40  1  0  0  0  0
  4 41  1  0  0  0  0
  5 42  1  0  0  0  0
  6 43  1  0  0  0  0
  7 44  1  0  0  0  0
  8 45  1  0  0  0  0
  9 46  1  0  0  0  0
 10 47  1  0  0  0  0
 11 48  1  0  0  0  0
 12 49  1  0  0  0  0
 21 50  1  0  0  0  0
 21 51  1  0  0  0  0
 22 52  1  0  0  0  0
 22 53  1  0  0  0  0
 23 54  1  0  0  0  0
 23 55  1  0  0  0  0
 24 56  1  0  0  0  0
 24 57  1  0  0  0  0
 25 58  1  0  0  0  0
 27 59  1  0  0  0  0
 27 60  1  0  0  0  0
 27 61  1  0  0  0  0
 28 62  1  0  0  0  0
 28 63  1  0  0  0  0
 29 64  1  0  0  0  0
 29 65  1  0  0  0  0
 32 66  1  0  0  0  0
 33 67  1  0  0  0  0
M  END
> <SMILES>
CC(=O)Nc1ccc(cc1)CC(=O)N1CC(CNc2ccc(cc2)F)C2(C1)CN(C2)c1ccc(cc1)F

> <FORMATTED_ID>
H3D-007523

> <MOLFORMULA>
C29H30F2N4O2

> <Exact Mass>
504.23

> <XLogP>
4.04

> <TPSA_NOPS>
64.7

> <s_m_source_file>
ligprep_h3d.sdf

> <i_m_source_file_index>
4845

> <i_lp_mmshare_version>
55123

> <i_f3d_flags>
0

> <s_epik_input>
W0NIM11DKD1PKVtOSF1jMVtjSF1bY0hdYyhbY0hdW2NIXTEpW0NIMl1DKD1PKU4oW0NIMl0yKVtDSDJdW0NASF0oW0NIMl1bTkhdYzNbY0hdW2NIXWMoRilbY0hdW2NIXTMpQzI0W0NIMl1OKFtDSDJdNCljNVtjSF1bY0hdYyhGKVtjSF1bY0hdNQ==

> <s_epik_cmdline>
J2VwaWtfcHl0aG9uJywgJy1waHQnLCAnMC41JywgJy1waCcsICc3LjUnLCAnLXRuJywgJzgnLCAnLW1hJywgJzUwMCcsICctaW1hZScsICc8aW5maWxlLm1hZT4nLCAnLW9tYWUnLCAnPG91dGZpbGUubWFlPic=

> <r_lp_tautomer_probability>
1

> <r_epik_Ionization_Penalty>
0.00324636

> <r_epik_Ionization_Penalty_Charging>
0

> <r_epik_Ionization_Penalty_Neutral>
0.00324636

> <r_epik_State_Penalty>
-0

> <r_epik_Charging_Adjusted_Penalty>
0

> <i_epik_Tot_Q>
0

> <i_epik_Tot_abs_Q>
0

> <s_lp_Force_Field>
S-OPLS

> <r_lp_Energy>
39.758

> <b_lp_Chiralities_Consistent>
1

> <s_lp_Variant>
ligprep_h3d.sdf:4845-1

> <ROCS_ShapeQuery>
_7L13

> <ROCS_TanimotoCombo>
0.708 

> <ROCS_ShapeTanimoto>
0.641 

> <ROCS_ColorTanimoto>
0.067 

> <ROCS_RefTversky>
0.786 

> <ROCS_RefColorTversky>
0.125 

> <ROCS_RefTverskyCombo>
0.912 

> <ROCS_FitTversky>
0.776 

> <ROCS_FitColorTversky>
0.125 

> <ROCS_FitTverskyCombo>
0.901 

> <ROCS_ColorScore>
-1.127

> <ROCS_Overlap>
1307.004

> <ROCS_Rank>
288                 

$$$$
ligprep_h3d.sdf:1135_1988
  -OEChem-08212117123D

 74 78  0     1  0  0  0  0  0999 V2000
  -20.0819   -3.9998  -32.2290 C   0  0  0  0  0  0  0  0  0  0  0  0
  -20.6099   -6.3476  -32.0145 C   0  0  0  0  0  0  0  0  0  0  0  0
  -19.5439   -4.2363  -33.4940 C   0  0  0  0  0  0  0  0  0  0  0  0
  -20.0720   -6.5841  -33.2796 C   0  0  0  0  0  0  0  0  0  0  0  0
  -16.8890   -6.0693  -26.4883 C   0  0  0  0  0  0  0  0  0  0  0  0
  -23.0714   -4.2557  -28.7844 C   0  0  0  0  0  0  0  0  0  0  0  0
  -20.7282   -4.4694  -25.3589 C   0  0  0  0  0  0  0  0  0  0  0  0
  -16.7281   -4.6765  -26.6146 C   0  0  0  0  0  0  0  0  0  0  0  0
  -20.9314   -4.6434  -27.7617 C   0  0  0  0  0  0  0  0  0  0  0  0
  -20.6148   -5.0555  -31.4892 C   0  0  0  0  0  0  0  0  0  0  0  0
  -21.1752   -4.8090  -30.1710 C   0  0  0  0  0  0  0  0  0  0  0  0
  -19.5390   -5.5284  -34.0193 C   0  0  0  0  0  0  0  0  0  0  0  0
  -22.5228   -4.4946  -30.0469 C   0  0  0  0  0  0  0  0  0  0  0  0
  -20.3794   -4.8837  -29.0314 C   0  0  0  0  0  0  0  0  0  0  0  0
  -22.2989   -4.3238  -27.6282 C   0  0  0  0  0  0  0  0  0  0  0  0
  -20.1533   -4.7119  -26.5981 C   0  0  0  0  0  0  0  0  0  0  0  0
  -22.0738   -4.1641  -25.3284 C   0  0  0  0  0  0  0  0  0  0  0  0
  -18.2494   -6.2572  -26.4659 C   0  0  0  0  0  0  0  0  0  0  0  0
  -19.8458   -7.5993  -36.8870 C   0  0  0  0  0  0  0  0  0  0  0  0
  -22.7380   -3.9007  -24.0635 C   0  0  0  0  0  0  0  0  0  0  0  0
  -21.9854   -6.6504  -37.3184 C   0  0  0  0  0  0  0  0  0  0  0  0
  -21.0742   -5.5844  -36.7430 C   0  0  0  0  0  0  0  0  0  0  0  0
  -21.0148   -7.7004  -37.8485 C   0  0  2  0  0  0  0  0  0  0  0  0
  -23.4223   -4.3999  -31.2383 C   0  0  0  0  0  0  0  0  0  0  0  0
  -18.9319   -5.2286  -29.2436 C   0  0  0  0  0  0  0  0  0  0  0  0
  -19.0457   -7.4948  -26.3512 C   0  0  0  0  0  0  0  0  0  0  0  0
  -28.1240   -6.5856  -22.9690 C   0  0  0  0  0  0  0  0  0  0  0  0
  -18.9636   -5.7814  -35.3717 C   0  0  0  0  0  0  0  0  0  0  0  0
  -24.9000   -4.0063  -22.7964 C   0  0  0  0  0  0  0  0  0  0  0  0
  -26.3353   -4.4575  -22.9875 C   0  0  0  0  0  0  0  0  0  0  0  0
  -17.8932   -4.0257  -26.6690 N   0  0  0  0  0  0  0  0  0  0  0  0
  -22.8595   -4.0879  -26.4270 N   0  0  0  0  0  0  0  0  0  0  0  0
  -18.7992   -5.0139  -26.5764 N   0  0  0  0  0  0  0  0  0  0  0  0
  -19.9335   -6.3443  -36.2856 N   0  0  0  0  0  0  0  0  0  0  0  0
  -24.0966   -4.2291  -23.9770 N   0  0  0  0  0  0  0  0  0  0  0  0
  -19.0020   -8.4653  -36.7125 O   0  0  0  0  0  0  0  0  0  0  0  0
  -22.1152   -3.3861  -23.1168 O   0  0  0  0  0  0  0  0  0  0  0  0
  -26.3291   -6.2947  -24.8469 O   0  0  0  0  0  0  0  0  0  0  0  0
  -25.5698   -6.9128  -22.5203 O   0  0  0  0  0  0  0  0  0  0  0  0
  -21.5991   -8.9775  -37.8454 O   0  0  0  0  0  0  0  0  0  0  0  0
  -26.4510   -6.1694  -23.4045 S   0  0  0  0  0  0  0  0  0  0  0  0
  -20.0778   -2.9871  -31.8329 H   0  0  0  0  0  0  0  0  0  0  0  0
  -21.0222   -7.1809  -31.4504 H   0  0  0  0  0  0  0  0  0  0  0  0
  -19.1298   -3.4080  -34.0628 H   0  0  0  0  0  0  0  0  0  0  0  0
  -20.0727   -7.5940  -33.6814 H   0  0  0  0  0  0  0  0  0  0  0  0
  -16.1240   -6.8292  -26.4230 H   0  0  0  0  0  0  0  0  0  0  0  0
  -24.1296   -4.0102  -28.7021 H   0  0  0  0  0  0  0  0  0  0  0  0
  -20.1478   -4.5160  -24.4416 H   0  0  0  0  0  0  0  0  0  0  0  0
  -15.8103   -4.1088  -26.6696 H   0  0  0  0  0  0  0  0  0  0  0  0
  -22.6300   -7.0755  -36.5387 H   0  0  0  0  0  0  0  0  0  0  0  0
  -22.6380   -6.2620  -38.1064 H   0  0  0  0  0  0  0  0  0  0  0  0
  -20.7363   -4.8759  -37.5055 H   0  0  0  0  0  0  0  0  0  0  0  0
  -21.5407   -5.0492  -35.9117 H   0  0  0  0  0  0  0  0  0  0  0  0
  -20.6696   -7.4467  -38.8570 H   0  0  0  0  0  0  0  0  0  0  0  0
  -23.4237   -3.3770  -31.6300 H   0  0  0  0  0  0  0  0  0  0  0  0
  -23.0961   -5.0804  -32.0334 H   0  0  0  0  0  0  0  0  0  0  0  0
  -24.4504   -4.6785  -30.9789 H   0  0  0  0  0  0  0  0  0  0  0  0
  -18.8000   -6.3128  -29.2044 H   0  0  0  0  0  0  0  0  0  0  0  0
  -18.5849   -4.8611  -30.2133 H   0  0  0  0  0  0  0  0  0  0  0  0
  -18.3072   -4.7645  -28.4752 H   0  0  0  0  0  0  0  0  0  0  0  0
  -19.2559   -7.7355  -25.2963 H   0  0  0  0  0  0  0  0  0  0  0  0
  -20.0130   -7.4145  -26.8759 H   0  0  0  0  0  0  0  0  0  0  0  0
  -18.5287   -8.3621  -26.7964 H   0  0  0  0  0  0  0  0  0  0  0  0
  -28.2867   -7.6403  -23.1961 H   0  0  0  0  0  0  0  0  0  0  0  0
  -28.2588   -6.3988  -21.9026 H   0  0  0  0  0  0  0  0  0  0  0  0
  -28.7983   -5.9596  -23.5555 H   0  0  0  0  0  0  0  0  0  0  0  0
  -18.5866   -4.8523  -35.8219 H   0  0  0  0  0  0  0  0  0  0  0  0
  -18.1152   -6.4779  -35.3249 H   0  0  0  0  0  0  0  0  0  0  0  0
  -24.8427   -2.9406  -22.5542 H   0  0  0  0  0  0  0  0  0  0  0  0
  -24.4334   -4.5705  -21.9832 H   0  0  0  0  0  0  0  0  0  0  0  0
  -26.8001   -3.9097  -23.8127 H   0  0  0  0  0  0  0  0  0  0  0  0
  -26.9325   -4.3071  -22.0831 H   0  0  0  0  0  0  0  0  0  0  0  0
  -24.5726   -4.5880  -24.7982 H   0  0  0  0  0  0  0  0  0  0  0  0
  -22.3382   -8.9675  -38.4825 H   0  0  0  0  0  0  0  0  0  0  0  0
  1  3  1  0  0  0  0
  1 10  2  0  0  0  0
  2  4  2  0  0  0  0
  2 10  1  0  0  0  0
  3 12  2  0  0  0  0
  4 12  1  0  0  0  0
  5  8  1  0  0  0  0
  5 18  2  0  0  0  0
  6 13  2  0  0  0  0
  6 15  1  0  0  0  0
  7 16  1  0  0  0  0
  7 17  2  0  0  0  0
  8 31  2  0  0  0  0
  9 14  1  0  0  0  0
  9 15  1  0  0  0  0
  9 16  2  0  0  0  0
 10 11  1  0  0  0  0
 11 13  1  0  0  0  0
 11 14  2  0  0  0  0
 12 28  1  0  0  0  0
 13 24  1  0  0  0  0
 14 25  1  0  0  0  0
 15 32  2  0  0  0  0
 16 33  1  0  0  0  0
 17 20  1  0  0  0  0
 17 32  1  0  0  0  0
 18 26  1  0  0  0  0
 18 33  1  0  0  0  0
 19 23  1  0  0  0  0
 19 34  1  0  0  0  0
 19 36  2  0  0  0  0
 20 35  1  0  0  0  0
 20 37  2  0  0  0  0
 21 22  1  0  0  0  0
 21 23  1  0  0  0  0
 22 34  1  0  0  0  0
 23 40  1  0  0  0  0
 27 41  1  0  0  0  0
 28 34  1  0  0  0  0
 29 30  1  0  0  0  0
 29 35  1  0  0  0  0
 30 41  1  0  0  0  0
 31 33  1  0  0  0  0
 38 41  2  0  0  0  0
 39 41  2  0  0  0  0
  1 42  1  0  0  0  0
  2 43  1  0  0  0  0
  3 44  1  0  0  0  0
  4 45  1  0  0  0  0
  5 46  1  0  0  0  0
  6 47  1  0  0  0  0
  7 48  1  0  0  0  0
  8 49  1  0  0  0  0
 21 50  1  0  0  0  0
 21 51  1  0  0  0  0
 22 52  1  0  0  0  0
 22 53  1  0  0  0  0
 23 54  1  0  0  0  0
 24 55  1  0  0  0  0
 24 56  1  0  0  0  0
 24 57  1  0  0  0  0
 25 58  1  0  0  0  0
 25 59  1  0  0  0  0
 25 60  1  0  0  0  0
 26 61  1  0  0  0  0
 26 62  1  0  0  0  0
 26 63  1  0  0  0  0
 27 64  1  0  0  0  0
 27 65  1  0  0  0  0
 27 66  1  0  0  0  0
 28 67  1  0  0  0  0
 28 68  1  0  0  0  0
 29 69  1  0  0  0  0
 29 70  1  0  0  0  0
 30 71  1  0  0  0  0
 30 72  1  0  0  0  0
 35 73  1  0  0  0  0
 40 74  1  0  0  0  0
M  END
> <SMILES>
Cc1cc2nc(cc(c2c(c1-c1ccc(cc1)CN1CC[C@H](O)C1=O)C)-n1nccc1C)C(=O)NCCS(=O)(=O)C

> <FORMATTED_ID>
H3D-007259

> <MOLFORMULA>
C30H33N5O5S

> <Exact Mass>
575.22

> <XLogP>
2.66

> <TPSA_NOPS>
142.9

> <s_m_source_file>
ligprep_h3d.sdf

> <i_m_source_file_index>
1135

> <i_lp_mmshare_version>
55123

> <i_f3d_flags>
0

> <s_epik_input>
Tz1TKD1PKShbQ0gzXSlbQ0gyXVtDSDJdW05IXUMoPU8pYyhuMSlbY0hdYygtbjJuW2NIXVtjSF1jMltDSDNdKWMoYzEzKWMoW0NIM10pYyhjKFtDSDNdKVtjSF0zKS1jNFtjSF1bY0hdYyhbY0hdW2NIXTQpW0NIMl1ONVtDSDJdW0NIMl1bQ0BIXShbT0hdKUM1PU8=

> <s_epik_cmdline>
J2VwaWtfcHl0aG9uJywgJy1waHQnLCAnMC41JywgJy1waCcsICc3LjUnLCAnLXRuJywgJzgnLCAnLW1hJywgJzUwMCcsICctaW1hZScsICc8aW5maWxlLm1hZT4nLCAnLW9tYWUnLCAnPG91dGZpbGUubWFlPic=

> <r_lp_tautomer_probability>
1

> <r_epik_Ionization_Penalty>
0.000264284

> <r_epik_Ionization_Penalty_Charging>
0

> <r_epik_Ionization_Penalty_Neutral>
0.000264284

> <r_epik_State_Penalty>
-0

> <r_epik_Charging_Adjusted_Penalty>
0

> <i_epik_Tot_Q>
0

> <i_epik_Tot_abs_Q>
0

> <s_lp_Force_Field>
S-OPLS

> <r_lp_Energy>
34.6593

> <b_lp_Chiralities_Consistent>
1

> <s_lp_Variant>
ligprep_h3d.sdf:1135-1

> <ROCS_ShapeQuery>
_7L13

> <ROCS_TanimotoCombo>
0.688 

> <ROCS_ShapeTanimoto>
0.591 

> <ROCS_ColorTanimoto>
0.097 

> <ROCS_RefTversky>
0.786 

> <ROCS_RefColorTversky>
0.219 

> <ROCS_RefTverskyCombo>
1.005 

> <ROCS_FitTversky>
0.704 

> <ROCS_FitColorTversky>
0.147 

> <ROCS_FitTverskyCombo>
0.851 

> <ROCS_ColorScore>
-2.026

> <ROCS_Overlap>
1314.515

> <ROCS_Rank>
289                 

$$$$
ligprep_h3d.sdf:4366_1904
  -OEChem-08212117123D

 56 60  0     1  0  0  0  0  0999 V2000
  -20.7163   -8.2540  -34.6376 C   0  0  0  0  0  0  0  0  0  0  0  0
  -20.1692   -9.0984  -35.6037 C   0  0  0  0  0  0  0  0  0  0  0  0
  -20.5015   -4.4883  -25.3661 C   0  0  0  0  0  0  0  0  0  0  0  0
  -19.8998   -6.3329  -35.8540 C   0  0  0  0  0  0  0  0  0  0  0  0
  -22.4461   -3.5684  -26.4418 C   0  0  0  0  0  0  0  0  0  0  0  0
  -21.4999   -4.7294  -30.4314 C   0  0  0  0  0  0  0  0  0  0  0  0
  -19.9154   -4.5734  -26.6187 C   0  0  0  0  0  0  0  0  0  0  0  0
  -23.1398   -3.4786  -32.3541 C   0  0  0  0  0  0  0  0  0  0  0  0
  -20.5817   -6.8713  -34.7628 C   0  0  0  0  0  0  0  0  0  0  0  0
  -21.7912   -3.9751  -25.2846 C   0  0  0  0  0  0  0  0  0  0  0  0
  -22.2785   -4.5072  -32.7370 C   0  0  0  0  0  0  0  0  0  0  0  0
  -21.4810   -5.1062  -31.7672 C   0  0  0  0  0  0  0  0  0  0  0  0
  -19.4873   -8.5600  -36.6949 C   0  0  0  0  0  0  0  0  0  0  0  0
  -19.3526   -7.1773  -36.8201 C   0  0  0  0  0  0  0  0  0  0  0  0
  -21.7728   -3.6945  -27.6462 C   0  0  0  0  0  0  0  0  0  0  0  0
  -22.3879   -3.7001  -30.1532 C   0  0  0  0  0  0  0  0  0  0  0  0
  -21.1474   -5.9974  -33.7637 C   0  0  0  0  0  0  0  0  0  0  0  0
  -22.4584   -3.8641  -23.9808 C   0  0  0  0  0  0  0  0  0  0  0  0
  -24.3223   -5.4034  -24.7912 C   0  0  0  0  0  0  0  0  0  0  0  0
  -24.3129   -4.5343  -22.4882 C   0  0  0  0  0  0  0  0  0  0  0  0
  -25.8101   -5.0514  -24.8646 C   0  0  1  0  0  0  0  0  0  0  0  0
  -25.7962   -4.2047  -22.6513 C   0  0  2  0  0  0  0  0  0  0  0  0
  -26.5566   -6.0149  -25.7757 C   0  0  0  0  0  0  0  0  0  0  0  0
  -26.5311   -4.3079  -21.3229 C   0  0  0  0  0  0  0  0  0  0  0  0
  -20.5199   -4.1883  -27.7649 N   0  0  0  0  0  0  0  0  0  0  0  0
  -23.1869   -3.0821  -31.0580 N   0  0  0  0  0  0  0  0  0  0  0  0
  -22.0584   -5.0730  -33.9709 N   0  0  0  0  0  0  0  0  0  0  0  0
  -20.7675   -6.0561  -32.4514 N   0  0  0  0  0  0  0  0  0  0  0  0
  -23.6532   -4.5606  -23.7926 N   0  0  0  0  0  0  0  0  0  0  0  0
  -22.4527   -3.2753  -28.8167 N   0  0  0  0  0  0  0  0  0  0  0  0
  -21.9006   -3.1587  -23.1416 O   0  0  0  0  0  0  0  0  0  0  0  0
  -26.3991   -5.1354  -23.5603 O   0  0  0  0  0  0  0  0  0  0  0  0
  -18.9607   -9.3716  -37.6215 F   0  0  0  0  0  0  0  0  0  0  0  0
  -18.6974   -6.6605  -37.8678 F   0  0  0  0  0  0  0  0  0  0  0  0
  -21.2460   -8.6891  -33.7934 H   0  0  0  0  0  0  0  0  0  0  0  0
  -20.2748  -10.1747  -35.5068 H   0  0  0  0  0  0  0  0  0  0  0  0
  -19.9628   -4.8149  -24.4831 H   0  0  0  0  0  0  0  0  0  0  0  0
  -19.7856   -5.2574  -35.9660 H   0  0  0  0  0  0  0  0  0  0  0  0
  -23.4534   -3.1645  -26.3984 H   0  0  0  0  0  0  0  0  0  0  0  0
  -20.8743   -5.2013  -29.6844 H   0  0  0  0  0  0  0  0  0  0  0  0
  -18.9110   -4.9667  -26.7363 H   0  0  0  0  0  0  0  0  0  0  0  0
  -23.7921   -2.9587  -33.0444 H   0  0  0  0  0  0  0  0  0  0  0  0
  -24.1871   -6.4386  -24.4544 H   0  0  0  0  0  0  0  0  0  0  0  0
  -23.8595   -5.3078  -25.7768 H   0  0  0  0  0  0  0  0  0  0  0  0
  -23.8254   -3.8155  -21.8216 H   0  0  0  0  0  0  0  0  0  0  0  0
  -24.1831   -5.5350  -22.0578 H   0  0  0  0  0  0  0  0  0  0  0  0
  -25.9425   -4.0307  -25.2494 H   0  0  0  0  0  0  0  0  0  0  0  0
  -25.9233   -3.1867  -23.0459 H   0  0  0  0  0  0  0  0  0  0  0  0
  -26.4405   -7.0373  -25.4145 H   0  0  0  0  0  0  0  0  0  0  0  0
  -26.1617   -5.9524  -26.7902 H   0  0  0  0  0  0  0  0  0  0  0  0
  -27.6181   -5.7657  -25.7943 H   0  0  0  0  0  0  0  0  0  0  0  0
  -26.4194   -5.3112  -20.9105 H   0  0  0  0  0  0  0  0  0  0  0  0
  -27.5923   -4.1014  -21.4655 H   0  0  0  0  0  0  0  0  0  0  0  0
  -26.1237   -3.5874  -20.6129 H   0  0  0  0  0  0  0  0  0  0  0  0
  -20.0828   -6.6850  -32.0525 H   0  0  0  0  0  0  0  0  0  0  0  0
  -23.1105   -2.5232  -28.6494 H   0  0  0  0  0  0  0  0  0  0  0  0
  1  2  1  0  0  0  0
  1  9  2  0  0  0  0
  2 13  2  0  0  0  0
  3  7  1  0  0  0  0
  3 10  2  0  0  0  0
  4  9  1  0  0  0  0
  4 14  2  0  0  0  0
  5 10  1  0  0  0  0
  5 15  2  0  0  0  0
  6 12  1  0  0  0  0
  6 16  2  0  0  0  0
  7 25  2  0  0  0  0
  8 11  1  0  0  0  0
  8 26  2  0  0  0  0
  9 17  1  0  0  0  0
 10 18  1  0  0  0  0
 11 12  2  0  0  0  0
 11 27  1  0  0  0  0
 12 28  1  0  0  0  0
 13 14  1  0  0  0  0
 13 33  1  0  0  0  0
 14 34  1  0  0  0  0
 15 25  1  0  0  0  0
 15 30  1  0  0  0  0
 16 26  1  0  0  0  0
 16 30  1  0  0  0  0
 17 27  2  0  0  0  0
 17 28  1  0  0  0  0
 18 29  1  0  0  0  0
 18 31  2  0  0  0  0
 19 21  1  0  0  0  0
 19 29  1  0  0  0  0
 20 22  1  0  0  0  0
 20 29  1  0  0  0  0
 21 23  1  0  0  0  0
 21 32  1  0  0  0  0
 22 24  1  0  0  0  0
 22 32  1  0  0  0  0
  1 35  1  0  0  0  0
  2 36  1  0  0  0  0
  3 37  1  0  0  0  0
  4 38  1  0  0  0  0
  5 39  1  0  0  0  0
  6 40  1  0  0  0  0
  7 41  1  0  0  0  0
  8 42  1  0  0  0  0
 19 43  1  0  0  0  0
 19 44  1  0  0  0  0
 20 45  1  0  0  0  0
 20 46  1  0  0  0  0
 21 47  1  0  0  0  0
 22 48  1  0  0  0  0
 23 49  1  0  0  0  0
 23 50  1  0  0  0  0
 23 51  1  0  0  0  0
 24 52  1  0  0  0  0
 24 53  1  0  0  0  0
 24 54  1  0  0  0  0
 28 55  1  0  0  0  0
 30 56  1  0  0  0  0
M  END
> <SMILES>
CC1CN(CC(C)O1)C(=O)c1ccnc(c1)Nc1cc2[nH]c(nc2cn1)-c1ccc(c(c1)F)F

> <FORMATTED_ID>
H3D-003908

> <MOLFORMULA>
C24H22F2N6O2

> <Exact Mass>
464.18

> <XLogP>
4.34

> <TPSA_NOPS>
96

> <s_m_source_file>
ligprep_h3d.sdf

> <i_m_source_file_index>
4366

> <i_lp_mmshare_version>
55123

> <i_f3d_flags>
0

> <s_epik_input>
W0NIM11bQ0BASF0xW0NIMl1OKFtDSDJdW0NAQEhdKE8xKVtDSDNdKUMoPU8pYzJbY0hdW2NIXW5jKFtjSF0yKVtOSF1jKFtjSF0zKVtuSF1bY0hdYyhjMzQpbmMobjQpLWM1W2NIXVtjSF1jKEYpYyhGKVtjSF01

> <s_epik_cmdline>
J2VwaWtfcHl0aG9uJywgJy1waHQnLCAnMC41JywgJy1waCcsICc3LjUnLCAnLXRuJywgJzgnLCAnLW1hJywgJzUwMCcsICctaW1hZScsICc8aW5maWxlLm1hZT4nLCAnLW9tYWUnLCAnPG91dGZpbGUubWFlPic=

> <r_lp_tautomer_probability>
1

> <r_epik_Ionization_Penalty>
0.0951133

> <r_epik_Ionization_Penalty_Charging>
0.0947018

> <r_epik_Ionization_Penalty_Neutral>
0.000411542

> <r_epik_State_Penalty>
-0

> <r_epik_Charging_Adjusted_Penalty>
0.0947018

> <i_epik_Tot_Q>
0

> <i_epik_Tot_abs_Q>
0

> <s_lp_Force_Field>
S-OPLS

> <r_lp_Energy>
49.2226

> <b_lp_Chiralities_Consistent>
1

> <s_lp_Variant>
ligprep_h3d.sdf:4366-1

> <ROCS_ShapeQuery>
_7L13

> <ROCS_TanimotoCombo>
0.854 

> <ROCS_ShapeTanimoto>
0.668 

> <ROCS_ColorTanimoto>
0.185 

> <ROCS_RefTversky>
0.786 

> <ROCS_RefColorTversky>
0.359 

> <ROCS_RefTverskyCombo>
1.146 

> <ROCS_FitTversky>
0.817 

> <ROCS_FitColorTversky>
0.277 

> <ROCS_FitTverskyCombo>
1.093 

> <ROCS_ColorScore>
-3.286

> <ROCS_Overlap>
1303.258

> <ROCS_Rank>
290                 

$$$$
ligprep_h3d.sdf:1066_25
  -OEChem-08212117123D

 61 67  0     1  0  0  0  0  0999 V2000
  -21.0040   -5.1835  -29.4899 C   0  0  0  0  0  0  0  0  0  0  0  0
  -21.7540   -4.4079  -30.3765 C   0  0  0  0  0  0  0  0  0  0  0  0
  -21.1149   -4.9290  -28.1018 C   0  0  0  0  0  0  0  0  0  0  0  0
  -21.9861   -3.9459  -27.5758 C   0  0  0  0  0  0  0  0  0  0  0  0
  -22.5750   -3.4297  -29.8600 C   0  0  0  0  0  0  0  0  0  0  0  0
  -22.7199   -3.1635  -28.4983 C   0  0  0  0  0  0  0  0  0  0  0  0
  -21.9427   -4.3041  -31.7673 C   0  0  0  0  0  0  0  0  0  0  0  0
  -18.9022   -3.8724  -26.2303 C   0  0  0  0  0  0  0  0  0  0  0  0
  -19.2776   -6.0673  -24.9883 C   0  0  0  0  0  0  0  0  0  0  0  0
  -17.0816   -5.2472  -25.8108 C   0  0  0  0  0  0  0  0  0  0  0  0
  -20.8621   -6.4399  -32.5928 C   0  0  0  0  0  0  0  0  0  0  0  0
  -20.2814   -5.7685  -27.1709 C   0  0  0  0  0  0  0  0  0  0  0  0
  -19.5472   -3.9088  -33.9800 C   0  0  0  0  0  0  0  0  0  0  0  0
  -23.0375   -2.7748  -25.6506 C   0  0  0  0  0  0  0  0  0  0  0  0
  -18.8277   -3.9404  -35.3164 C   0  0  0  0  0  0  0  0  0  0  0  0
  -19.8368   -5.9622  -35.9924 C   0  0  0  0  0  0  0  0  0  0  0  0
  -20.8941   -4.6466  -34.0499 C   0  0  1  0  0  0  0  0  0  0  0  0
  -21.2160   -4.4688  -25.2266 C   0  0  2  0  0  0  0  0  0  0  0  0
  -20.7928   -5.9585  -34.8092 C   0  0  2  0  0  0  0  0  0  0  0  0
  -23.4145   -3.0765  -24.1972 C   0  0  1  0  0  0  0  0  0  0  0  0
  -21.0449   -3.5273  -23.9984 C   0  0  2  0  0  0  0  0  0  0  0  0
  -19.8991   -5.0021  -25.8806 C   0  0  2  0  0  0  0  0  0  0  0  0
  -24.4171   -4.2225  -24.0763 C   0  0  0  0  0  0  0  0  0  0  0  0
  -20.0940   -4.0046  -22.9080 C   0  0  0  0  0  0  0  0  0  0  0  0
  -22.8085   -3.3388  -32.0907 N   0  0  0  0  0  0  0  0  0  0  0  0
  -17.6457   -4.2432  -26.4833 N   0  5  0  0  0  0  0  0  0  0  0  0
  -17.8980   -6.0762  -25.0437 N   0  0  0  0  0  0  0  0  0  0  0  0
  -22.0939   -3.7589  -26.1955 N   0  0  3  0  0  0  0  0  0  0  0  0
  -21.2945   -5.1186  -32.7414 N   0  0  0  0  0  0  0  0  0  0  0  0
  -19.2922   -2.7141  -26.3762 O   0  0  0  0  0  0  0  0  0  0  0  0
  -19.9268   -6.8885  -24.3443 O   0  0  0  0  0  0  0  0  0  0  0  0
  -15.8715   -5.4855  -25.8535 O   0  0  0  0  0  0  0  0  0  0  0  0
  -20.8639   -7.1545  -31.6008 O   0  0  0  0  0  0  0  0  0  0  0  0
  -23.2060   -2.7849  -30.8794 O   0  0  0  0  0  0  0  0  0  0  0  0
  -20.3639   -6.8861  -33.8004 O   0  0  0  0  0  0  0  0  0  0  0  0
  -18.6113   -5.2947  -35.7027 O   0  0  0  0  0  0  0  0  0  0  0  0
  -22.3080   -3.3512  -23.3430 O   0  0  0  0  0  0  0  0  0  0  0  0
  -23.4689   -2.1138  -28.1397 F   0  0  0  0  0  0  0  0  0  0  0  0
  -20.3410   -5.9604  -29.8597 H   0  0  0  0  0  0  0  0  0  0  0  0
  -20.8591   -6.6716  -26.9310 H   0  0  0  0  0  0  0  0  0  0  0  0
  -19.3756   -6.1085  -27.6902 H   0  0  0  0  0  0  0  0  0  0  0  0
  -18.8989   -4.3903  -33.2356 H   0  0  0  0  0  0  0  0  0  0  0  0
  -19.7021   -2.8749  -33.6518 H   0  0  0  0  0  0  0  0  0  0  0  0
  -23.9483   -2.8061  -26.2834 H   0  0  0  0  0  0  0  0  0  0  0  0
  -22.7077   -1.7251  -25.6972 H   0  0  0  0  0  0  0  0  0  0  0  0
  -19.3873   -3.4088  -36.0949 H   0  0  0  0  0  0  0  0  0  0  0  0
  -17.8485   -3.4601  -35.2233 H   0  0  0  0  0  0  0  0  0  0  0  0
  -19.5847   -6.9900  -36.2727 H   0  0  0  0  0  0  0  0  0  0  0  0
  -20.2986   -5.4788  -36.8612 H   0  0  0  0  0  0  0  0  0  0  0  0
  -21.6650   -3.9984  -34.4829 H   0  0  0  0  0  0  0  0  0  0  0  0
  -21.8058   -5.3365  -24.8895 H   0  0  0  0  0  0  0  0  0  0  0  0
  -21.7796   -6.2994  -35.1489 H   0  0  0  0  0  0  0  0  0  0  0  0
  -23.9481   -2.1594  -23.7667 H   0  0  0  0  0  0  0  0  0  0  0  0
  -20.6975   -2.5268  -24.3135 H   0  0  0  0  0  0  0  0  0  0  0  0
  -23.9819   -5.1418  -24.4685 H   0  0  0  0  0  0  0  0  0  0  0  0
  -25.3197   -3.9896  -24.6414 H   0  0  0  0  0  0  0  0  0  0  0  0
  -24.6841   -4.3757  -23.0305 H   0  0  0  0  0  0  0  0  0  0  0  0
  -20.3927   -4.9933  -22.5591 H   0  0  0  0  0  0  0  0  0  0  0  0
  -20.1136   -3.3120  -22.0665 H   0  0  0  0  0  0  0  0  0  0  0  0
  -19.0773   -4.0594  -23.2975 H   0  0  0  0  0  0  0  0  0  0  0  0
  -17.4265   -6.7621  -24.4615 H   0  0  0  0  0  0  0  0  0  0  0  0
  1  2  2  0  0  0  0
  1  3  1  0  0  0  0
  2  5  1  0  0  0  0
  2  7  1  0  0  0  0
  3  4  2  0  0  0  0
  3 12  1  0  0  0  0
  4  6  1  0  0  0  0
  4 28  1  0  0  0  0
  5  6  2  0  0  0  0
  5 34  1  0  0  0  0
  6 38  1  0  0  0  0
  7 25  2  0  0  0  0
  7 29  1  0  0  0  0
  8 22  1  0  0  0  0
  8 26  1  0  0  0  0
  8 30  2  0  0  0  0
  9 22  1  0  0  0  0
  9 27  1  0  0  0  0
  9 31  2  0  0  0  0
 10 26  1  0  0  0  0
 10 27  1  0  0  0  0
 10 32  2  0  0  0  0
 11 29  1  0  0  0  0
 11 33  2  0  0  0  0
 11 35  1  0  0  0  0
 12 22  1  0  0  0  0
 13 15  1  0  0  0  0
 13 17  1  0  0  0  0
 14 20  1  0  0  0  0
 14 28  1  0  0  0  0
 15 36  1  0  0  0  0
 16 19  1  0  0  0  0
 16 36  1  0  0  0  0
 17 19  1  0  0  0  0
 17 29  1  0  0  0  0
 18 21  1  0  0  0  0
 18 22  1  0  0  0  0
 18 28  1  0  0  0  0
 19 35  1  0  0  0  0
 20 23  1  0  0  0  0
 20 37  1  0  0  0  0
 21 24  1  0  0  0  0
 21 37  1  0  0  0  0
 25 34  1  0  0  0  0
  1 39  1  0  0  0  0
 12 40  1  0  0  0  0
 12 41  1  0  0  0  0
 13 42  1  0  0  0  0
 13 43  1  0  0  0  0
 14 44  1  0  0  0  0
 14 45  1  0  0  0  0
 15 46  1  0  0  0  0
 15 47  1  0  0  0  0
 16 48  1  0  0  0  0
 16 49  1  0  0  0  0
 17 50  1  0  0  0  0
 18 51  1  0  0  0  0
 19 52  1  0  0  0  0
 20 53  1  0  0  0  0
 21 54  1  0  0  0  0
 23 55  1  0  0  0  0
 23 56  1  0  0  0  0
 23 57  1  0  0  0  0
 24 58  1  0  0  0  0
 24 59  1  0  0  0  0
 24 60  1  0  0  0  0
 27 61  1  0  0  0  0
M  CHG  1  26  -1
M  END
> <SMILES>
C[C@@H]1CN2[C@H]([C@H](C)O1)C1(Cc3cc4c(noc4c(c32)F)N2[C@H]3CCOC[C@H]3OC2=O)C(=O)NC(=O)NC1=O

> <FORMATTED_ID>
H3D-006628

> <MOLFORMULA>
C24H24FN5O8

> <Exact Mass>
529.16

> <XLogP>
0.34

> <TPSA_NOPS>
152.8

> <s_m_source_file>
ligprep_h3d.sdf

> <i_m_source_file_index>
1066

> <i_lp_mmshare_version>
55123

> <i_f3d_flags>
0

> <s_epik_input>
Tz1DMVtOSF1DKD1PKVtOSF1DKD1PKUMxMltDQEBIXTNOKFtDSDJdW0NAQEhdKFtDSDNdKU9bQ0BIXTNbQ0gzXSljNGMoW0NIMl0yKVtjSF1jNWMoYzRGKW9uYzVONkMoPU8pT1tDQEBIXShbQ0BASF02NylbQ0gyXU9bQ0gyXVtDSDJdNw==

> <s_epik_cmdline>
J2VwaWtfcHl0aG9uJywgJy1waHQnLCAnMC41JywgJy1waCcsICc3LjUnLCAnLXRuJywgJzgnLCAnLW1hJywgJzUwMCcsICctaW1hZScsICc8aW5maWxlLm1hZT4nLCAnLW9tYWUnLCAnPG91dGZpbGUubWFlPic=

> <r_lp_tautomer_probability>
1

> <r_epik_Ionization_Penalty>
0.455388

> <r_epik_Ionization_Penalty_Charging>
0.455373

> <r_epik_Ionization_Penalty_Neutral>
1.4617e-05

> <r_epik_State_Penalty>
0.458483

> <r_epik_Charging_Adjusted_Penalty>
0.913857

> <i_epik_Tot_Q>
-1

> <i_epik_Tot_abs_Q>
1

> <s_epik_Chemistry_Notes>
This compound has an ester and may undergo hydrolysis at high or low pH.

> <s_lp_Force_Field>
S-OPLS

> <r_lp_Energy>
52.6324

> <b_lp_Chiralities_Consistent>
1

> <s_lp_Variant>
ligprep_h3d.sdf:1066-2

> <ROCS_ShapeQuery>
_7L13

> <ROCS_TanimotoCombo>
0.722 

> <ROCS_ShapeTanimoto>
0.603 

> <ROCS_ColorTanimoto>
0.119 

> <ROCS_RefTversky>
0.786 

> <ROCS_RefColorTversky>
0.295 

> <ROCS_RefTverskyCombo>
1.081 

> <ROCS_FitTversky>
0.721 

> <ROCS_FitColorTversky>
0.166 

> <ROCS_FitTverskyCombo>
0.888 

> <ROCS_ColorScore>
-2.775

> <ROCS_Overlap>
1312.138

> <ROCS_Rank>
291                 

$$$$
ligprep_h3d.sdf:1066_25
  -OEChem-08212117123D

 62 68  0     1  0  0  0  0  0999 V2000
  -20.9850   -5.1661  -29.4968 C   0  0  0  0  0  0  0  0  0  0  0  0
  -21.7446   -4.3977  -30.3811 C   0  0  0  0  0  0  0  0  0  0  0  0
  -21.0973   -4.9168  -28.1072 C   0  0  0  0  0  0  0  0  0  0  0  0
  -21.9803   -3.9466  -27.5777 C   0  0  0  0  0  0  0  0  0  0  0  0
  -22.5767   -3.4308  -29.8614 C   0  0  0  0  0  0  0  0  0  0  0  0
  -22.7232   -3.1702  -28.4987 C   0  0  0  0  0  0  0  0  0  0  0  0
  -21.9358   -4.2928  -31.7714 C   0  0  0  0  0  0  0  0  0  0  0  0
  -18.9171   -3.8853  -26.1911 C   0  0  0  0  0  0  0  0  0  0  0  0
  -19.3033   -6.1397  -25.0016 C   0  0  0  0  0  0  0  0  0  0  0  0
  -17.0285   -5.4231  -25.7015 C   0  0  0  0  0  0  0  0  0  0  0  0
  -20.8293   -6.4130  -32.6028 C   0  0  0  0  0  0  0  0  0  0  0  0
  -20.2482   -5.7499  -27.1845 C   0  0  0  0  0  0  0  0  0  0  0  0
  -19.5470   -3.8623  -33.9847 C   0  0  0  0  0  0  0  0  0  0  0  0
  -23.0277   -2.7734  -25.6517 C   0  0  0  0  0  0  0  0  0  0  0  0
  -18.8281   -3.8817  -35.3217 C   0  0  0  0  0  0  0  0  0  0  0  0
  -19.8124   -5.9142  -36.0020 C   0  0  0  0  0  0  0  0  0  0  0  0
  -20.8847   -4.6167  -34.0556 C   0  0  1  0  0  0  0  0  0  0  0  0
  -21.2252   -4.4860  -25.2276 C   0  0  2  0  0  0  0  0  0  0  0  0
  -20.7676   -5.9253  -34.8181 C   0  0  2  0  0  0  0  0  0  0  0  0
  -23.4082   -3.0721  -24.1988 C   0  0  1  0  0  0  0  0  0  0  0  0
  -21.0446   -3.5496  -23.9976 C   0  0  2  0  0  0  0  0  0  0  0  0
  -19.9048   -5.0173  -25.8634 C   0  0  0  0  0  0  0  0  0  0  0  0
  -24.4189   -4.2110  -24.0776 C   0  0  0  0  0  0  0  0  0  0  0  0
  -20.1029   -4.0468  -22.9073 C   0  0  0  0  0  0  0  0  0  0  0  0
  -22.8139   -3.3374  -32.0915 N   0  0  0  0  0  0  0  0  0  0  0  0
  -17.5814   -4.2547  -26.2057 N   0  0  0  0  0  0  0  0  0  0  0  0
  -17.9287   -6.2899  -25.0984 N   0  0  0  0  0  0  0  0  0  0  0  0
  -22.0907   -3.7639  -26.1972 N   0  0  3  0  0  0  0  0  0  0  0  0
  -21.2782   -5.0968  -32.7479 N   0  0  0  0  0  0  0  0  0  0  0  0
  -19.2719   -2.7438  -26.4850 O   0  0  0  0  0  0  0  0  0  0  0  0
  -19.9930   -6.9148  -24.3376 O   0  0  0  0  0  0  0  0  0  0  0  0
  -15.8194   -5.6556  -25.7494 O   0  0  0  0  0  0  0  0  0  0  0  0
  -20.8215   -7.1299  -31.6126 O   0  0  0  0  0  0  0  0  0  0  0  0
  -23.2167   -2.7913  -30.8784 O   0  0  0  0  0  0  0  0  0  0  0  0
  -20.3265   -6.8500  -33.8119 O   0  0  0  0  0  0  0  0  0  0  0  0
  -18.5952   -5.2323  -35.7115 O   0  0  0  0  0  0  0  0  0  0  0  0
  -22.3043   -3.3523  -23.3435 O   0  0  0  0  0  0  0  0  0  0  0  0
  -23.4839   -2.1290  -28.1405 F   0  0  0  0  0  0  0  0  0  0  0  0
  -20.3132   -5.9343  -29.8690 H   0  0  0  0  0  0  0  0  0  0  0  0
  -20.7969   -6.6803  -26.9830 H   0  0  0  0  0  0  0  0  0  0  0  0
  -19.3216   -6.0370  -27.7002 H   0  0  0  0  0  0  0  0  0  0  0  0
  -18.8922   -4.3376  -33.2420 H   0  0  0  0  0  0  0  0  0  0  0  0
  -19.7144   -2.8312  -33.6539 H   0  0  0  0  0  0  0  0  0  0  0  0
  -23.9383   -2.7990  -26.2855 H   0  0  0  0  0  0  0  0  0  0  0  0
  -22.6932   -1.7255  -25.6967 H   0  0  0  0  0  0  0  0  0  0  0  0
  -19.3948   -3.3552  -36.0985 H   0  0  0  0  0  0  0  0  0  0  0  0
  -17.8548   -3.3895  -35.2281 H   0  0  0  0  0  0  0  0  0  0  0  0
  -19.5478   -6.9382  -36.2850 H   0  0  0  0  0  0  0  0  0  0  0  0
  -20.2808   -5.4345  -36.8693 H   0  0  0  0  0  0  0  0  0  0  0  0
  -21.6639   -3.9770  -34.4865 H   0  0  0  0  0  0  0  0  0  0  0  0
  -21.8231   -5.3499  -24.8979 H   0  0  0  0  0  0  0  0  0  0  0  0
  -21.7503   -6.2776  -35.1580 H   0  0  0  0  0  0  0  0  0  0  0  0
  -23.9360   -2.1504  -23.7699 H   0  0  0  0  0  0  0  0  0  0  0  0
  -20.6768   -2.5557  -24.3128 H   0  0  0  0  0  0  0  0  0  0  0  0
  -23.9896   -5.1338  -24.4682 H   0  0  0  0  0  0  0  0  0  0  0  0
  -25.3192   -3.9725  -24.6440 H   0  0  0  0  0  0  0  0  0  0  0  0
  -24.6881   -4.3611  -23.0320 H   0  0  0  0  0  0  0  0  0  0  0  0
  -20.4218   -5.0292  -22.5588 H   0  0  0  0  0  0  0  0  0  0  0  0
  -20.1081   -3.3541  -22.0658 H   0  0  0  0  0  0  0  0  0  0  0  0
  -19.0878   -4.1222  -23.2974 H   0  0  0  0  0  0  0  0  0  0  0  0
  -16.9357   -3.5973  -26.6327 H   0  0  0  0  0  0  0  0  0  0  0  0
  -17.5294   -7.0986  -24.6308 H   0  0  0  0  0  0  0  0  0  0  0  0
  1  2  2  0  0  0  0
  1  3  1  0  0  0  0
  2  5  1  0  0  0  0
  2  7  1  0  0  0  0
  3  4  2  0  0  0  0
  3 12  1  0  0  0  0
  4  6  1  0  0  0  0
  4 28  1  0  0  0  0
  5  6  2  0  0  0  0
  5 34  1  0  0  0  0
  6 38  1  0  0  0  0
  7 25  2  0  0  0  0
  7 29  1  0  0  0  0
  8 22  1  0  0  0  0
  8 26  1  0  0  0  0
  8 30  2  0  0  0  0
  9 22  1  0  0  0  0
  9 27  1  0  0  0  0
  9 31  2  0  0  0  0
 10 26  1  0  0  0  0
 10 27  1  0  0  0  0
 10 32  2  0  0  0  0
 11 29  1  0  0  0  0
 11 33  2  0  0  0  0
 11 35  1  0  0  0  0
 12 22  1  0  0  0  0
 13 15  1  0  0  0  0
 13 17  1  0  0  0  0
 14 20  1  0  0  0  0
 14 28  1  0  0  0  0
 15 36  1  0  0  0  0
 16 19  1  0  0  0  0
 16 36  1  0  0  0  0
 17 19  1  0  0  0  0
 17 29  1  0  0  0  0
 18 21  1  0  0  0  0
 18 22  1  0  0  0  0
 18 28  1  0  0  0  0
 19 35  1  0  0  0  0
 20 23  1  0  0  0  0
 20 37  1  0  0  0  0
 21 24  1  0  0  0  0
 21 37  1  0  0  0  0
 25 34  1  0  0  0  0
  1 39  1  0  0  0  0
 12 40  1  0  0  0  0
 12 41  1  0  0  0  0
 13 42  1  0  0  0  0
 13 43  1  0  0  0  0
 14 44  1  0  0  0  0
 14 45  1  0  0  0  0
 15 46  1  0  0  0  0
 15 47  1  0  0  0  0
 16 48  1  0  0  0  0
 16 49  1  0  0  0  0
 17 50  1  0  0  0  0
 18 51  1  0  0  0  0
 19 52  1  0  0  0  0
 20 53  1  0  0  0  0
 21 54  1  0  0  0  0
 23 55  1  0  0  0  0
 23 56  1  0  0  0  0
 23 57  1  0  0  0  0
 24 58  1  0  0  0  0
 24 59  1  0  0  0  0
 24 60  1  0  0  0  0
 26 61  1  0  0  0  0
 27 62  1  0  0  0  0
M  END
> <SMILES>
C[C@@H]1CN2[C@H]([C@H](C)O1)C1(Cc3cc4c(noc4c(c32)F)N2[C@H]3CCOC[C@H]3OC2=O)C(=O)NC(=O)NC1=O

> <FORMATTED_ID>
H3D-006628

> <MOLFORMULA>
C24H24FN5O8

> <Exact Mass>
529.16

> <XLogP>
0.34

> <TPSA_NOPS>
152.8

> <s_m_source_file>
ligprep_h3d.sdf

> <i_m_source_file_index>
1066

> <i_lp_mmshare_version>
55123

> <i_f3d_flags>
0

> <s_epik_input>
Tz1DMVtOSF1DKD1PKVtOSF1DKD1PKUMxMltDQEBIXTNOKFtDSDJdW0NAQEhdKFtDSDNdKU9bQ0BIXTNbQ0gzXSljNGMoW0NIMl0yKVtjSF1jNWMoYzRGKW9uYzVONkMoPU8pT1tDQEBIXShbQ0BASF02NylbQ0gyXU9bQ0gyXVtDSDJdNw==

> <s_epik_cmdline>
J2VwaWtfcHl0aG9uJywgJy1waHQnLCAnMC41JywgJy1waCcsICc3LjUnLCAnLXRuJywgJzgnLCAnLW1hJywgJzUwMCcsICctaW1hZScsICc8aW5maWxlLm1hZT4nLCAnLW9tYWUnLCAnPG91dGZpbGUubWFlPic=

> <r_lp_tautomer_probability>
1

> <r_epik_Ionization_Penalty>
0.369125

> <r_epik_Ionization_Penalty_Charging>
0

> <r_epik_Ionization_Penalty_Neutral>
0.369125

> <r_epik_State_Penalty>
0.366447

> <r_epik_Charging_Adjusted_Penalty>
0.366447

> <i_epik_Tot_Q>
0

> <i_epik_Tot_abs_Q>
0

> <s_epik_Chemistry_Notes>
This compound has an ester and may undergo hydrolysis at high or low pH.

> <s_lp_Force_Field>
S-OPLS

> <r_lp_Energy>
44.5227

> <b_lp_Chiralities_Consistent>
1

> <s_lp_Variant>
ligprep_h3d.sdf:1066-1

> <ROCS_ShapeQuery>
_7L13

> <ROCS_TanimotoCombo>
0.729 

> <ROCS_ShapeTanimoto>
0.605 

> <ROCS_ColorTanimoto>
0.124 

> <ROCS_RefTversky>
0.786 

> <ROCS_RefColorTversky>
0.296 

> <ROCS_RefTverskyCombo>
1.083 

> <ROCS_FitTversky>
0.724 

> <ROCS_FitColorTversky>
0.176 

> <ROCS_FitTverskyCombo>
0.900 

> <ROCS_ColorScore>
-2.772

> <ROCS_Overlap>
1311.840

> <ROCS_Rank>
292                 

$$$$
ligprep_h3d.sdf:4996_1995
  -OEChem-08212117123D

 67 71  0     1  0  0  0  0  0999 V2000
  -19.6436   -5.9159  -33.5831 C   0  0  0  0  0  0  0  0  0  0  0  0
  -21.1008   -4.8203  -35.1684 C   0  0  0  0  0  0  0  0  0  0  0  0
  -23.4920   -4.9213  -24.4393 C   0  0  0  0  0  0  0  0  0  0  0  0
  -25.2477   -3.2895  -24.1368 C   0  0  0  0  0  0  0  0  0  0  0  0
  -19.1398   -6.7224  -34.6035 C   0  0  0  0  0  0  0  0  0  0  0  0
  -20.5969   -5.6268  -36.1889 C   0  0  0  0  0  0  0  0  0  0  0  0
  -24.1778   -5.8123  -23.6139 C   0  0  0  0  0  0  0  0  0  0  0  0
  -25.9336   -4.1805  -23.3114 C   0  0  0  0  0  0  0  0  0  0  0  0
  -18.0489   -6.1124  -25.1760 C   0  0  0  0  0  0  0  0  0  0  0  0
  -17.3469   -3.8948  -25.8288 C   0  0  0  0  0  0  0  0  0  0  0  0
  -16.0282   -5.1639  -24.2517 C   0  0  0  0  0  0  0  0  0  0  0  0
  -20.6242   -4.9649  -33.8655 C   0  0  0  0  0  0  0  0  0  0  0  0
  -18.2545   -4.9502  -25.9192 C   0  0  0  0  0  0  0  0  0  0  0  0
  -24.0269   -3.6599  -24.7007 C   0  0  0  0  0  0  0  0  0  0  0  0
  -19.6164   -6.5778  -35.9064 C   0  0  0  0  0  0  0  0  0  0  0  0
  -25.3987   -5.4419  -23.0500 C   0  0  0  0  0  0  0  0  0  0  0  0
  -16.9358   -6.2193  -24.3421 C   0  0  0  0  0  0  0  0  0  0  0  0
  -16.2338   -4.0016  -24.9950 C   0  0  0  0  0  0  0  0  0  0  0  0
  -22.8829   -3.7624  -30.9937 C   0  0  0  0  0  0  0  0  0  0  0  0
  -22.7830   -3.1596  -28.5905 C   0  0  0  0  0  0  0  0  0  0  0  0
  -20.4367   -5.7475  -27.0364 C   0  0  0  0  0  0  0  0  0  0  0  0
  -19.6738   -3.9471  -27.8229 C   0  0  0  0  0  0  0  0  0  0  0  0
  -21.4466   -5.0433  -29.3411 C   0  0  0  0  0  0  0  0  0  0  0  0
  -22.3093   -3.9298  -27.3652 C   0  0  1  0  0  0  0  0  0  0  0  0
  -21.0622   -4.6402  -27.9148 C   0  0  0  0  0  0  0  0  0  0  0  0
  -21.1690   -4.0919  -32.7617 C   0  0  0  0  0  0  0  0  0  0  0  0
  -22.0906   -3.0475  -26.1504 C   0  0  0  0  0  0  0  0  0  0  0  0
  -22.3829   -4.6979  -32.0654 C   0  0  2  0  0  0  0  0  0  0  0  0
  -19.3726   -4.8426  -26.7578 N   0  0  0  0  0  0  0  0  0  0  0  0
  -22.3894   -3.9920  -29.7196 N   0  0  0  0  0  0  0  0  0  0  0  0
  -23.3400   -2.7676  -25.5273 N   0  0  0  0  0  0  0  0  0  0  0  0
  -23.4829   -4.9131  -33.0379 N   0  3  0  0  0  0  0  0  0  0  0  0
  -23.6745   -2.8606  -31.2744 O   0  0  0  0  0  0  0  0  0  0  0  0
  -19.1236   -7.3640  -36.9022 O   0  0  0  0  0  0  0  0  0  0  0  0
  -26.0573   -6.2976  -22.2573 F   0  0  0  0  0  0  0  0  0  0  0  0
  -16.7378   -7.3363  -23.6299 F   0  0  0  0  0  0  0  0  0  0  0  0
  -15.3613   -2.9890  -24.9096 F   0  0  0  0  0  0  0  0  0  0  0  0
  -19.2666   -6.0354  -32.5709 H   0  0  0  0  0  0  0  0  0  0  0  0
  -21.8649   -4.0820  -35.3977 H   0  0  0  0  0  0  0  0  0  0  0  0
  -22.5415   -5.2204  -24.8738 H   0  0  0  0  0  0  0  0  0  0  0  0
  -25.6736   -2.3089  -24.3336 H   0  0  0  0  0  0  0  0  0  0  0  0
  -18.3756   -7.4613  -34.3772 H   0  0  0  0  0  0  0  0  0  0  0  0
  -20.9720   -5.5091  -37.2016 H   0  0  0  0  0  0  0  0  0  0  0  0
  -23.7618   -6.7946  -23.4103 H   0  0  0  0  0  0  0  0  0  0  0  0
  -26.8840   -3.8925  -22.8718 H   0  0  0  0  0  0  0  0  0  0  0  0
  -18.7492   -6.9410  -25.2397 H   0  0  0  0  0  0  0  0  0  0  0  0
  -17.4970   -2.9850  -26.4043 H   0  0  0  0  0  0  0  0  0  0  0  0
  -15.1610   -5.2484  -23.6034 H   0  0  0  0  0  0  0  0  0  0  0  0
  -23.8748   -3.0922  -28.6128 H   0  0  0  0  0  0  0  0  0  0  0  0
  -22.3693   -2.1531  -28.6791 H   0  0  0  0  0  0  0  0  0  0  0  0
  -20.9967   -6.0169  -26.1309 H   0  0  0  0  0  0  0  0  0  0  0  0
  -20.1021   -6.6600  -27.5427 H   0  0  0  0  0  0  0  0  0  0  0  0
  -19.0160   -4.0663  -28.6856 H   0  0  0  0  0  0  0  0  0  0  0  0
  -19.6905   -2.9039  -27.4953 H   0  0  0  0  0  0  0  0  0  0  0  0
  -20.5928   -4.9895  -30.0248 H   0  0  0  0  0  0  0  0  0  0  0  0
  -21.9111   -6.0306  -29.4178 H   0  0  0  0  0  0  0  0  0  0  0  0
  -23.1051   -4.6929  -27.0924 H   0  0  0  0  0  0  0  0  0  0  0  0
  -21.4072   -3.0945  -33.1560 H   0  0  0  0  0  0  0  0  0  0  0  0
  -20.3633   -3.9230  -32.0340 H   0  0  0  0  0  0  0  0  0  0  0  0
  -21.4360   -3.5908  -25.4712 H   0  0  0  0  0  0  0  0  0  0  0  0
  -21.6212   -2.1294  -26.4992 H   0  0  0  0  0  0  0  0  0  0  0  0
  -22.1744   -5.6619  -31.6007 H   0  0  0  0  0  0  0  0  0  0  0  0
  -23.7798   -1.8566  -25.6822 H   0  0  0  0  0  0  0  0  0  0  0  0
  -24.3734   -4.5657  -32.6668 H   0  0  0  0  0  0  0  0  0  0  0  0
  -23.5954   -5.9105  -33.2483 H   0  0  0  0  0  0  0  0  0  0  0  0
  -23.2943   -4.4230  -33.9189 H   0  0  0  0  0  0  0  0  0  0  0  0
  -19.5512   -7.1459  -37.7457 H   0  0  0  0  0  0  0  0  0  0  0  0
  1  5  1  0  0  0  0
  1 12  2  0  0  0  0
  2  6  2  0  0  0  0
  2 12  1  0  0  0  0
  3  7  1  0  0  0  0
  3 14  2  0  0  0  0
  4  8  2  0  0  0  0
  4 14  1  0  0  0  0
  5 15  2  0  0  0  0
  6 15  1  0  0  0  0
  7 16  2  0  0  0  0
  8 16  1  0  0  0  0
  9 13  2  0  0  0  0
  9 17  1  0  0  0  0
 10 13  1  0  0  0  0
 10 18  2  0  0  0  0
 11 17  2  0  0  0  0
 11 18  1  0  0  0  0
 12 26  1  0  0  0  0
 13 29  1  0  0  0  0
 14 31  1  0  0  0  0
 15 34  1  0  0  0  0
 16 35  1  0  0  0  0
 17 36  1  0  0  0  0
 18 37  1  0  0  0  0
 19 28  1  0  0  0  0
 19 30  1  0  0  0  0
 19 33  2  0  0  0  0
 20 24  1  0  0  0  0
 20 30  1  0  0  0  0
 21 25  1  0  0  0  0
 21 29  1  0  0  0  0
 22 25  1  0  0  0  0
 22 29  1  0  0  0  0
 23 25  1  0  0  0  0
 23 30  1  0  0  0  0
 24 25  1  0  0  0  0
 24 27  1  0  0  0  0
 26 28  1  0  0  0  0
 27 31  1  0  0  0  0
 28 32  1  0  0  0  0
  1 38  1  0  0  0  0
  2 39  1  0  0  0  0
  3 40  1  0  0  0  0
  4 41  1  0  0  0  0
  5 42  1  0  0  0  0
  6 43  1  0  0  0  0
  7 44  1  0  0  0  0
  8 45  1  0  0  0  0
  9 46  1  0  0  0  0
 10 47  1  0  0  0  0
 11 48  1  0  0  0  0
 20 49  1  0  0  0  0
 20 50  1  0  0  0  0
 21 51  1  0  0  0  0
 21 52  1  0  0  0  0
 22 53  1  0  0  0  0
 22 54  1  0  0  0  0
 23 55  1  0  0  0  0
 23 56  1  0  0  0  0
 24 57  1  0  0  0  0
 26 58  1  0  0  0  0
 26 59  1  0  0  0  0
 27 60  1  0  0  0  0
 27 61  1  0  0  0  0
 28 62  1  0  0  0  0
 31 63  1  0  0  0  0
 32 64  1  0  0  0  0
 32 65  1  0  0  0  0
 32 66  1  0  0  0  0
 34 67  1  0  0  0  0
M  CHG  1  32   1
M  END
> <SMILES>
N[C@@H](Cc1ccc(cc1)O)C(=O)N1CC(CNc2ccc(cc2)F)C2(C1)CN(C2)c1cc(cc(c1)F)F

> <FORMATTED_ID>
H3D-008847

> <MOLFORMULA>
C28H29F3N4O2

> <Exact Mass>
510.22

> <XLogP>
3.26

> <TPSA_NOPS>
81.8

> <s_m_source_file>
ligprep_h3d.sdf

> <i_m_source_file_index>
4996

> <i_lp_mmshare_version>
55123

> <i_f3d_flags>
0

> <s_epik_input>
W2NIXTFbY0hdYyhbT0hdKVtjSF1bY0hdYzFbQ0gyXVtDQEhdKFtOSDJdKUMoPU8pTihbQ0gyXTIpW0NIMl1bQ0BIXShbQ0gyXVtOSF1jM1tjSF1bY0hdYyhGKVtjSF1bY0hdMylDMjRbQ0gyXU4oW0NIMl00KWM1W2NIXWMoRilbY0hdYyhGKVtjSF01

> <s_epik_cmdline>
J2VwaWtfcHl0aG9uJywgJy1waHQnLCAnMC41JywgJy1waCcsICc3LjUnLCAnLXRuJywgJzgnLCAnLW1hJywgJzUwMCcsICctaW1hZScsICc8aW5maWxlLm1hZT4nLCAnLW9tYWUnLCAnPG91dGZpbGUubWFlPic=

> <r_lp_tautomer_probability>
1

> <r_epik_Ionization_Penalty>
0.41475

> <r_epik_Ionization_Penalty_Charging>
0.403078

> <r_epik_Ionization_Penalty_Neutral>
0.0116725

> <r_epik_State_Penalty>
0.402571

> <r_epik_Charging_Adjusted_Penalty>
0.805649

> <i_epik_Tot_Q>
1

> <i_epik_Tot_abs_Q>
1

> <s_lp_Force_Field>
S-OPLS

> <r_lp_Energy>
32.5993

> <b_lp_Chiralities_Consistent>
1

> <s_lp_Variant>
ligprep_h3d.sdf:4996-1

> <ROCS_ShapeQuery>
_7L13

> <ROCS_TanimotoCombo>
0.702 

> <ROCS_ShapeTanimoto>
0.641 

> <ROCS_ColorTanimoto>
0.061 

> <ROCS_RefTversky>
0.786 

> <ROCS_RefColorTversky>
0.127 

> <ROCS_RefTverskyCombo>
0.913 

> <ROCS_FitTversky>
0.776 

> <ROCS_FitColorTversky>
0.106 

> <ROCS_FitTverskyCombo>
0.882 

> <ROCS_ColorScore>
-1.156

> <ROCS_Overlap>
1306.443

> <ROCS_Rank>
293                 

$$$$
ligprep_h3d.sdf:5135_862
  -OEChem-08212117123D

 65 69  0     0  0  0  0  0  0999 V2000
  -19.5682   -6.6595  -36.2526 C   0  0  0  0  0  0  0  0  0  0  0  0
  -19.6636   -7.7474  -35.3849 C   0  0  0  0  0  0  0  0  0  0  0  0
  -19.4506   -5.3673  -35.7407 C   0  0  0  0  0  0  0  0  0  0  0  0
  -19.6414   -7.5432  -34.0052 C   0  0  0  0  0  0  0  0  0  0  0  0
  -19.4284   -5.1630  -34.3610 C   0  0  0  0  0  0  0  0  0  0  0  0
  -18.0838   -6.2733  -27.0851 C   0  0  0  0  0  0  0  0  0  0  0  0
  -18.1867   -4.7819  -25.2011 C   0  0  0  0  0  0  0  0  0  0  0  0
  -22.6462   -4.0925  -29.2040 C   0  0  0  0  0  0  0  0  0  0  0  0
  -19.9259   -4.8048  -29.3427 C   0  0  0  0  0  0  0  0  0  0  0  0
  -16.8667   -6.7201  -26.5964 C   0  0  0  0  0  0  0  0  0  0  0  0
  -16.9651   -5.2955  -24.7966 C   0  0  0  0  0  0  0  0  0  0  0  0
  -21.8960   -4.2860  -28.0503 C   0  0  0  0  0  0  0  0  0  0  0  0
  -19.5238   -6.2509  -33.4933 C   0  0  0  0  0  0  0  0  0  0  0  0
  -18.7500   -5.2855  -26.3683 C   0  0  0  0  0  0  0  0  0  0  0  0
  -20.5449   -4.6580  -28.1075 C   0  0  0  0  0  0  0  0  0  0  0  0
  -22.0241   -4.2547  -30.4402 C   0  0  0  0  0  0  0  0  0  0  0  0
  -20.6711   -4.6045  -30.5089 C   0  0  0  0  0  0  0  0  0  0  0  0
  -23.1252   -2.8955  -26.3138 C   0  0  0  0  0  0  0  0  0  0  0  0
  -23.1949   -5.4206  -26.2364 C   0  0  0  0  0  0  0  0  0  0  0  0
  -20.9590   -4.1967  -25.8933 C   0  0  0  0  0  0  0  0  0  0  0  0
  -23.6406   -2.8492  -24.8812 C   0  0  0  0  0  0  0  0  0  0  0  0
  -23.7560   -5.3547  -24.8195 C   0  0  0  0  0  0  0  0  0  0  0  0
  -22.3460   -4.1879  -26.6129 C   0  0  0  0  0  0  0  0  0  0  0  0
  -22.7733   -2.7538  -32.1260 C   0  0  0  0  0  0  0  0  0  0  0  0
  -19.5001   -6.0304  -32.0093 C   0  0  0  0  0  0  0  0  0  0  0  0
  -25.1624   -3.9968  -23.2752 C   0  0  0  0  0  0  0  0  0  0  0  0
  -26.3776   -4.9031  -23.2673 C   0  0  0  0  0  0  0  0  0  0  0  0
  -16.2881   -6.2550  -25.4666 N   0  0  0  0  0  0  0  0  0  0  0  0
  -19.9811   -4.8002  -26.8194 N   0  0  0  0  0  0  0  0  0  0  0  0
  -24.5047   -4.0600  -24.6264 N   0  3  0  0  0  0  0  0  0  0  0  0
  -27.0248   -4.8204  -22.0044 O   0  0  0  0  0  0  0  0  0  0  0  0
  -22.7475   -4.0711  -31.5807 O   0  0  0  0  0  0  0  0  0  0  0  0
  -20.0611   -4.7523  -31.7197 O   0  0  0  0  0  0  0  0  0  0  0  0
  -19.5842   -6.8189  -37.3268 H   0  0  0  0  0  0  0  0  0  0  0  0
  -19.7540   -8.7538  -35.7833 H   0  0  0  0  0  0  0  0  0  0  0  0
  -19.3753   -4.5202  -36.4160 H   0  0  0  0  0  0  0  0  0  0  0  0
  -19.7164   -8.3968  -33.3367 H   0  0  0  0  0  0  0  0  0  0  0  0
  -19.3367   -4.1527  -33.9712 H   0  0  0  0  0  0  0  0  0  0  0  0
  -18.4961   -6.6875  -27.9991 H   0  0  0  0  0  0  0  0  0  0  0  0
  -18.6798   -4.0112  -24.6180 H   0  0  0  0  0  0  0  0  0  0  0  0
  -23.6941   -3.8155  -29.1481 H   0  0  0  0  0  0  0  0  0  0  0  0
  -18.8736   -5.0663  -29.4084 H   0  0  0  0  0  0  0  0  0  0  0  0
  -16.3075   -7.4896  -27.1185 H   0  0  0  0  0  0  0  0  0  0  0  0
  -16.4834   -4.9367  -23.8929 H   0  0  0  0  0  0  0  0  0  0  0  0
  -23.9810   -2.8121  -26.9930 H   0  0  0  0  0  0  0  0  0  0  0  0
  -22.5022   -2.0144  -26.4966 H   0  0  0  0  0  0  0  0  0  0  0  0
  -22.6046   -6.3430  -26.3497 H   0  0  0  0  0  0  0  0  0  0  0  0
  -24.0376   -5.5281  -26.9374 H   0  0  0  0  0  0  0  0  0  0  0  0
  -20.6363   -3.1940  -25.5925 H   0  0  0  0  0  0  0  0  0  0  0  0
  -21.0005   -4.8123  -24.9836 H   0  0  0  0  0  0  0  0  0  0  0  0
  -22.8339   -2.8561  -24.1451 H   0  0  0  0  0  0  0  0  0  0  0  0
  -24.2646   -1.9652  -24.7288 H   0  0  0  0  0  0  0  0  0  0  0  0
  -24.4677   -6.1735  -24.6536 H   0  0  0  0  0  0  0  0  0  0  0  0
  -22.9680   -5.4050  -24.0567 H   0  0  0  0  0  0  0  0  0  0  0  0
  -23.3840   -2.7457  -33.0321 H   0  0  0  0  0  0  0  0  0  0  0  0
  -21.7541   -2.4344  -32.3577 H   0  0  0  0  0  0  0  0  0  0  0  0
  -23.2080   -2.0730  -31.3903 H   0  0  0  0  0  0  0  0  0  0  0  0
  -20.0797   -6.8009  -31.4894 H   0  0  0  0  0  0  0  0  0  0  0  0
  -18.4739   -6.0670  -31.6282 H   0  0  0  0  0  0  0  0  0  0  0  0
  -24.4076   -4.3133  -22.5498 H   0  0  0  0  0  0  0  0  0  0  0  0
  -25.4362   -2.9517  -23.1081 H   0  0  0  0  0  0  0  0  0  0  0  0
  -27.0888   -4.5778  -24.0330 H   0  0  0  0  0  0  0  0  0  0  0  0
  -26.1057   -5.9460  -23.4602 H   0  0  0  0  0  0  0  0  0  0  0  0
  -25.2655   -4.0413  -25.3196 H   0  0  0  0  0  0  0  0  0  0  0  0
  -27.7927   -5.4132  -22.0439 H   0  0  0  0  0  0  0  0  0  0  0  0
  1  2  2  0  0  0  0
  1  3  1  0  0  0  0
  2  4  1  0  0  0  0
  3  5  2  0  0  0  0
  4 13  2  0  0  0  0
  5 13  1  0  0  0  0
  6 10  1  0  0  0  0
  6 14  2  0  0  0  0
  7 11  2  0  0  0  0
  7 14  1  0  0  0  0
  8 12  1  0  0  0  0
  8 16  2  0  0  0  0
  9 15  1  0  0  0  0
  9 17  2  0  0  0  0
 10 28  2  0  0  0  0
 11 28  1  0  0  0  0
 12 15  2  0  0  0  0
 12 23  1  0  0  0  0
 13 25  1  0  0  0  0
 14 29  1  0  0  0  0
 15 29  1  0  0  0  0
 16 17  1  0  0  0  0
 16 32  1  0  0  0  0
 17 33  1  0  0  0  0
 18 21  1  0  0  0  0
 18 23  1  0  0  0  0
 19 22  1  0  0  0  0
 19 23  1  0  0  0  0
 20 23  1  0  0  0  0
 20 29  1  0  0  0  0
 21 30  1  0  0  0  0
 22 30  1  0  0  0  0
 24 32  1  0  0  0  0
 25 33  1  0  0  0  0
 26 27  1  0  0  0  0
 26 30  1  0  0  0  0
 27 31  1  0  0  0  0
  1 34  1  0  0  0  0
  2 35  1  0  0  0  0
  3 36  1  0  0  0  0
  4 37  1  0  0  0  0
  5 38  1  0  0  0  0
  6 39  1  0  0  0  0
  7 40  1  0  0  0  0
  8 41  1  0  0  0  0
  9 42  1  0  0  0  0
 10 43  1  0  0  0  0
 11 44  1  0  0  0  0
 18 45  1  0  0  0  0
 18 46  1  0  0  0  0
 19 47  1  0  0  0  0
 19 48  1  0  0  0  0
 20 49  1  0  0  0  0
 20 50  1  0  0  0  0
 21 51  1  0  0  0  0
 21 52  1  0  0  0  0
 22 53  1  0  0  0  0
 22 54  1  0  0  0  0
 24 55  1  0  0  0  0
 24 56  1  0  0  0  0
 24 57  1  0  0  0  0
 25 58  1  0  0  0  0
 25 59  1  0  0  0  0
 26 60  1  0  0  0  0
 26 61  1  0  0  0  0
 27 62  1  0  0  0  0
 27 63  1  0  0  0  0
 30 64  1  0  0  0  0
 31 65  1  0  0  0  0
M  CHG  1  30   1
M  END
> <SMILES>
COc1cc2c(cc1OCc1ccccc1)N(CC12CCN(CCO)CC1)c1ccncc1

> <FORMATTED_ID>
H3D-013400

> <MOLFORMULA>
C27H31N3O3

> <Exact Mass>
445.24

> <XLogP>
4.08

> <TPSA_NOPS>
58.1

> <s_m_source_file>
ligprep_h3d.sdf

> <i_m_source_file_index>
5135

> <i_lp_mmshare_version>
55123

> <i_f3d_flags>
0

> <s_epik_input>
W2NIXTFbY0hdW2NIXVtjSF1bY0hdYzFbQ0gyXU9jKGMoW2NIXTIpT1tDSDNdKVtjSF1jKE4oW0NIMl0zKWM0W2NIXVtjSF1uW2NIXVtjSF00KWMyQzM1W0NIMl1bQ0gyXU4oW0NIMl1bQ0gyXTUpW0NIMl1bQ0gyXVtPSF0=

> <s_epik_cmdline>
J2VwaWtfcHl0aG9uJywgJy1waHQnLCAnMC41JywgJy1waCcsICc3LjUnLCAnLXRuJywgJzgnLCAnLW1hJywgJzUwMCcsICctaW1hZScsICc8aW5maWxlLm1hZT4nLCAnLW9tYWUnLCAnPG91dGZpbGUubWFlPic=

> <r_lp_tautomer_probability>
1

> <r_epik_Ionization_Penalty>
0.147519

> <r_epik_Ionization_Penalty_Charging>
0.0243449

> <r_epik_Ionization_Penalty_Neutral>
0.123174

> <r_epik_State_Penalty>
-0

> <r_epik_Charging_Adjusted_Penalty>
0.0243449

> <i_epik_Tot_Q>
1

> <i_epik_Tot_abs_Q>
1

> <s_lp_Force_Field>
S-OPLS

> <r_lp_Energy>
72.0004

> <b_lp_Chiralities_Consistent>
1

> <s_lp_Variant>
ligprep_h3d.sdf:5135-1

> <ROCS_ShapeQuery>
_7L13

> <ROCS_TanimotoCombo>
0.792 

> <ROCS_ShapeTanimoto>
0.697 

> <ROCS_ColorTanimoto>
0.095 

> <ROCS_RefTversky>
0.786 

> <ROCS_RefColorTversky>
0.199 

> <ROCS_RefTverskyCombo>
0.985 

> <ROCS_FitTversky>
0.860 

> <ROCS_FitColorTversky>
0.153 

> <ROCS_FitTverskyCombo>
1.013 

> <ROCS_ColorScore>
-1.821

> <ROCS_Overlap>
1299.336

> <ROCS_Rank>
294                 

$$$$
ligprep_h3d.sdf:4176_1305
  -OEChem-08212117123D

 53 57  0     0  0  0  0  0  0999 V2000
  -17.9827   -4.6777  -25.4580 C   0  0  0  0  0  0  0  0  0  0  0  0
  -18.3692   -3.8074  -26.4771 C   0  0  0  0  0  0  0  0  0  0  0  0
  -18.6246   -5.9072  -25.3100 C   0  0  0  0  0  0  0  0  0  0  0  0
  -19.2705   -7.0009  -35.3802 C   0  0  0  0  0  0  0  0  0  0  0  0
  -21.5223   -3.2653  -24.2250 C   0  0  0  0  0  0  0  0  0  0  0  0
  -19.2936   -8.1358  -34.5773 C   0  0  0  0  0  0  0  0  0  0  0  0
  -21.5100   -3.1839  -25.6174 C   0  0  0  0  0  0  0  0  0  0  0  0
  -19.3977   -4.1665  -27.3483 C   0  0  0  0  0  0  0  0  0  0  0  0
  -19.6531   -6.2664  -26.1812 C   0  0  0  0  0  0  0  0  0  0  0  0
  -22.5447   -3.9574  -23.5759 C   0  0  0  0  0  0  0  0  0  0  0  0
  -20.0154   -5.8842  -35.0176 C   0  0  0  0  0  0  0  0  0  0  0  0
  -23.0794   -2.7579  -28.6178 C   0  0  0  0  0  0  0  0  0  0  0  0
  -23.5425   -4.4866  -25.7116 C   0  0  0  0  0  0  0  0  0  0  0  0
  -21.5717   -4.9046  -31.0787 C   0  0  0  0  0  0  0  0  0  0  0  0
  -20.0715   -8.1037  -33.4312 C   0  0  0  0  0  0  0  0  0  0  0  0
  -23.1059   -2.5158  -31.1936 C   0  0  0  0  0  0  0  0  0  0  0  0
  -22.7884   -3.1038  -29.9699 C   0  0  0  0  0  0  0  0  0  0  0  0
  -22.5201   -3.7945  -26.3607 C   0  0  0  0  0  0  0  0  0  0  0  0
  -20.0396   -5.3960  -27.2003 C   0  0  0  0  0  0  0  0  0  0  0  0
  -23.5548   -4.5681  -24.3191 C   0  0  0  0  0  0  0  0  0  0  0  0
  -22.0343   -4.2766  -29.9294 C   0  0  0  0  0  0  0  0  0  0  0  0
  -22.5076   -3.7083  -27.8042 C   0  0  0  0  0  0  0  0  0  0  0  0
  -20.7611   -5.9529  -33.8518 C   0  0  0  0  0  0  0  0  0  0  0  0
  -21.9157   -4.2791  -32.2616 C   0  0  0  0  0  0  0  0  0  0  0  0
  -21.1494   -5.7840  -28.1397 C   0  0  0  0  0  0  0  0  0  0  0  0
  -24.6487   -5.3064  -23.6245 C   0  0  0  0  0  0  0  0  0  0  0  0
  -20.8085   -7.0377  -33.0464 N   0  0  0  0  0  0  0  0  0  0  0  0
  -21.8786   -4.6212  -28.6060 N   0  0  0  0  0  0  0  0  0  0  0  0
  -22.6393   -3.1562  -32.2687 N   0  3  0  0  0  0  0  0  0  0  0  0
  -21.5128   -4.8105  -33.4970 N   0  0  0  0  0  0  0  0  0  0  0  0
  -24.5336   -5.3023  -22.2634 F   0  0  0  0  0  0  0  0  0  0  0  0
  -25.8936   -4.8047  -23.8779 F   0  0  0  0  0  0  0  0  0  0  0  0
  -24.7043   -6.6221  -23.9831 F   0  0  0  0  0  0  0  0  0  0  0  0
  -17.1810   -4.3985  -24.7805 H   0  0  0  0  0  0  0  0  0  0  0  0
  -17.8688   -2.8504  -26.5932 H   0  0  0  0  0  0  0  0  0  0  0  0
  -18.3232   -6.5856  -24.5173 H   0  0  0  0  0  0  0  0  0  0  0  0
  -18.6738   -6.9869  -36.2875 H   0  0  0  0  0  0  0  0  0  0  0  0
  -20.7358   -2.7905  -23.6458 H   0  0  0  0  0  0  0  0  0  0  0  0
  -18.7212   -9.0180  -34.8402 H   0  0  0  0  0  0  0  0  0  0  0  0
  -20.7057   -2.6410  -26.1083 H   0  0  0  0  0  0  0  0  0  0  0  0
  -19.6923   -3.4819  -28.1394 H   0  0  0  0  0  0  0  0  0  0  0  0
  -20.1476   -7.2263  -26.0582 H   0  0  0  0  0  0  0  0  0  0  0  0
  -22.5462   -4.0156  -22.4908 H   0  0  0  0  0  0  0  0  0  0  0  0
  -20.0026   -4.9940  -35.6380 H   0  0  0  0  0  0  0  0  0  0  0  0
  -23.6486   -1.9001  -28.2839 H   0  0  0  0  0  0  0  0  0  0  0  0
  -24.3340   -4.9645  -26.2856 H   0  0  0  0  0  0  0  0  0  0  0  0
  -20.9852   -5.8149  -31.0489 H   0  0  0  0  0  0  0  0  0  0  0  0
  -20.1234   -8.9631  -32.7708 H   0  0  0  0  0  0  0  0  0  0  0  0
  -23.6787   -1.6134  -31.3553 H   0  0  0  0  0  0  0  0  0  0  0  0
  -20.7591   -6.3179  -29.0147 H   0  0  0  0  0  0  0  0  0  0  0  0
  -21.8610   -6.4623  -27.6534 H   0  0  0  0  0  0  0  0  0  0  0  0
  -22.8543   -2.7527  -33.1808 H   0  0  0  0  0  0  0  0  0  0  0  0
  -21.8223   -4.2677  -34.3012 H   0  0  0  0  0  0  0  0  0  0  0  0
  1  2  2  0  0  0  0
  1  3  1  0  0  0  0
  2  8  1  0  0  0  0
  3  9  2  0  0  0  0
  4  6  2  0  0  0  0
  4 11  1  0  0  0  0
  5  7  2  0  0  0  0
  5 10  1  0  0  0  0
  6 15  1  0  0  0  0
  7 18  1  0  0  0  0
  8 19  2  0  0  0  0
  9 19  1  0  0  0  0
 10 20  2  0  0  0  0
 11 23  2  0  0  0  0
 12 17  1  0  0  0  0
 12 22  2  0  0  0  0
 13 18  2  0  0  0  0
 13 20  1  0  0  0  0
 14 21  2  0  0  0  0
 14 24  1  0  0  0  0
 15 27  2  0  0  0  0
 16 17  2  0  0  0  0
 16 29  1  0  0  0  0
 17 21  1  0  0  0  0
 18 22  1  0  0  0  0
 19 25  1  0  0  0  0
 20 26  1  0  0  0  0
 21 28  1  0  0  0  0
 22 28  1  0  0  0  0
 23 27  1  0  0  0  0
 23 30  1  0  0  0  0
 24 29  2  0  0  0  0
 24 30  1  0  0  0  0
 25 28  1  0  0  0  0
 26 31  1  0  0  0  0
 26 32  1  0  0  0  0
 26 33  1  0  0  0  0
  1 34  1  0  0  0  0
  2 35  1  0  0  0  0
  3 36  1  0  0  0  0
  4 37  1  0  0  0  0
  5 38  1  0  0  0  0
  6 39  1  0  0  0  0
  7 40  1  0  0  0  0
  8 41  1  0  0  0  0
  9 42  1  0  0  0  0
 10 43  1  0  0  0  0
 11 44  1  0  0  0  0
 12 45  1  0  0  0  0
 13 46  1  0  0  0  0
 14 47  1  0  0  0  0
 15 48  1  0  0  0  0
 16 49  1  0  0  0  0
 25 50  1  0  0  0  0
 25 51  1  0  0  0  0
 29 52  1  0  0  0  0
 30 53  1  0  0  0  0
M  CHG  1  29   1
M  END
> <SMILES>
FC(F)(F)c1cccc(c1)-c1cc2cnc(cc2n1Cc1ccccc1)Nc1ccccn1

> <FORMATTED_ID>
H3D-002771

> <MOLFORMULA>
C26H19F3N4

> <Exact Mass>
444.16

> <XLogP>
7.16

> <TPSA_NOPS>
42.7

> <s_m_source_file>
ligprep_h3d.sdf

> <i_m_source_file_index>
4176

> <i_lp_mmshare_version>
55123

> <i_f3d_flags>
0

> <s_epik_input>
RkMoRikoRiljMVtjSF1bY0hdW2NIXWMoW2NIXTEpLWMoW2NIXTIpbihbQ0gyXWMzW2NIXVtjSF1bY0hdW2NIXVtjSF0zKWMoYzI0KVtjSF1jKG5bY0hdNClbTkhdYzVbY0hdW2NIXVtjSF1bY0hdbjU=

> <s_epik_cmdline>
J2VwaWtfcHl0aG9uJywgJy1waHQnLCAnMC41JywgJy1waCcsICc3LjUnLCAnLXRuJywgJzgnLCAnLW1hJywgJzUwMCcsICctaW1hZScsICc8aW5maWxlLm1hZT4nLCAnLW9tYWUnLCAnPG91dGZpbGUubWFlPic=

> <r_lp_tautomer_probability>
1

> <r_epik_Ionization_Penalty>
0.0875395

> <r_epik_Ionization_Penalty_Charging>
0.0673852

> <r_epik_Ionization_Penalty_Neutral>
0.0201543

> <r_epik_State_Penalty>
-0

> <r_epik_Charging_Adjusted_Penalty>
0.0673852

> <i_epik_Tot_Q>
1

> <i_epik_Tot_abs_Q>
1

> <s_lp_Force_Field>
S-OPLS

> <r_lp_Energy>
51.5498

> <b_lp_Chiralities_Consistent>
1

> <s_lp_Variant>
ligprep_h3d.sdf:4176-1

> <ROCS_ShapeQuery>
_7L13

> <ROCS_TanimotoCombo>
0.739 

> <ROCS_ShapeTanimoto>
0.679 

> <ROCS_ColorTanimoto>
0.060 

> <ROCS_RefTversky>
0.786 

> <ROCS_RefColorTversky>
0.114 

> <ROCS_RefTverskyCombo>
0.900 

> <ROCS_FitTversky>
0.833 

> <ROCS_FitColorTversky>
0.113 

> <ROCS_FitTverskyCombo>
0.946 

> <ROCS_ColorScore>
-1.022

> <ROCS_Overlap>
1301.368

> <ROCS_Rank>
295                 

$$$$
ligprep_h3d.sdf:855_114
  -OEChem-08212117123D

 59 64  0     1  0  0  0  0  0999 V2000
  -20.9045   -5.0858  -29.5100 C   0  0  0  0  0  0  0  0  0  0  0  0
  -21.7083   -4.3582  -30.3897 C   0  0  0  0  0  0  0  0  0  0  0  0
  -21.0326   -4.8538  -28.1188 C   0  0  0  0  0  0  0  0  0  0  0  0
  -21.9729   -3.9424  -27.5835 C   0  0  0  0  0  0  0  0  0  0  0  0
  -22.5975   -3.4470  -29.8641 C   0  0  0  0  0  0  0  0  0  0  0  0
  -22.7604   -3.2055  -28.4997 C   0  0  0  0  0  0  0  0  0  0  0  0
  -21.9044   -4.2549  -31.7794 C   0  0  0  0  0  0  0  0  0  0  0  0
  -18.9200   -3.7069  -26.1928 C   0  0  0  0  0  0  0  0  0  0  0  0
  -19.1707   -5.9889  -25.0200 C   0  0  0  0  0  0  0  0  0  0  0  0
  -16.9426   -5.1317  -25.7120 C   0  0  0  0  0  0  0  0  0  0  0  0
  -20.7391   -7.8064  -34.9822 C   0  0  0  0  0  0  0  0  0  0  0  0
  -20.1356   -5.6410  -27.2011 C   0  0  0  0  0  0  0  0  0  0  0  0
  -19.6743   -5.6248  -34.3764 C   0  0  0  0  0  0  0  0  0  0  0  0
  -19.9160   -4.6072  -33.2651 C   0  0  0  0  0  0  0  0  0  0  0  0
  -21.6039   -6.3364  -33.1454 C   0  0  0  0  0  0  0  0  0  0  0  0
  -23.0905   -2.8484  -25.6503 C   0  0  0  0  0  0  0  0  0  0  0  0
  -20.3708   -6.8799  -33.8689 C   0  0  1  0  0  0  0  0  0  0  0  0
  -21.1885   -4.4524  -25.2364 C   0  0  2  0  0  0  0  0  0  0  0  0
  -23.4534   -3.1799  -24.2000 C   0  0  1  0  0  0  0  0  0  0  0  0
  -21.0655   -3.5157  -23.9994 C   0  0  2  0  0  0  0  0  0  0  0  0
  -19.8379   -4.8986  -25.8744 C   0  0  0  0  0  0  0  0  0  0  0  0
  -24.3938   -4.3785  -24.0882 C   0  0  0  0  0  0  0  0  0  0  0  0
  -20.0963   -3.9632  -22.9117 C   0  0  0  0  0  0  0  0  0  0  0  0
  -22.8382   -3.3518  -32.0938 N   0  0  0  0  0  0  0  0  0  0  0  0
  -17.5644   -3.9950  -26.2084 N   0  0  0  0  0  0  0  0  0  0  0  0
  -17.7894   -6.0554  -25.1162 N   0  0  0  0  0  0  0  0  0  0  0  0
  -22.0951   -3.7767  -26.2018 N   0  0  3  0  0  0  0  0  0  0  0  0
  -21.1875   -5.0172  -32.6775 N   0  0  0  0  0  0  0  0  0  0  0  0
  -19.9543   -7.8000  -35.9708 O   0  5  0  0  0  0  0  0  0  0  0  0
  -19.3426   -2.5867  -26.4789 O   0  0  0  0  0  0  0  0  0  0  0  0
  -19.8129   -6.8089  -24.3624 O   0  0  0  0  0  0  0  0  0  0  0  0
  -15.7217   -5.2906  -25.7601 O   0  0  0  0  0  0  0  0  0  0  0  0
  -21.7916   -8.4768  -34.7871 O   0  0  0  0  0  0  0  0  0  0  0  0
  -23.2740   -2.8397  -30.8772 O   0  0  0  0  0  0  0  0  0  0  0  0
  -22.3353   -3.3994  -23.3455 O   0  0  0  0  0  0  0  0  0  0  0  0
  -23.5824   -2.2145  -28.1348 F   0  0  0  0  0  0  0  0  0  0  0  0
  -20.1873   -5.8101  -29.8859 H   0  0  0  0  0  0  0  0  0  0  0  0
  -20.6276   -6.6040  -27.0070 H   0  0  0  0  0  0  0  0  0  0  0  0
  -19.1930   -5.8685  -27.7176 H   0  0  0  0  0  0  0  0  0  0  0  0
  -20.0581   -5.2726  -35.3362 H   0  0  0  0  0  0  0  0  0  0  0  0
  -18.6009   -5.8132  -34.4768 H   0  0  0  0  0  0  0  0  0  0  0  0
  -19.1017   -4.6182  -32.5322 H   0  0  0  0  0  0  0  0  0  0  0  0
  -20.0055   -3.5945  -33.6759 H   0  0  0  0  0  0  0  0  0  0  0  0
  -22.4791   -6.2750  -33.8005 H   0  0  0  0  0  0  0  0  0  0  0  0
  -21.8493   -6.9649  -32.2827 H   0  0  0  0  0  0  0  0  0  0  0  0
  -23.9975   -2.9237  -26.2852 H   0  0  0  0  0  0  0  0  0  0  0  0
  -22.8195   -1.7821  -25.6872 H   0  0  0  0  0  0  0  0  0  0  0  0
  -19.7113   -7.4327  -33.1584 H   0  0  0  0  0  0  0  0  0  0  0  0
  -21.7336   -5.3530  -24.9137 H   0  0  0  0  0  0  0  0  0  0  0  0
  -24.0361   -2.2952  -23.7653 H   0  0  0  0  0  0  0  0  0  0  0  0
  -20.7579   -2.4993  -24.3068 H   0  0  0  0  0  0  0  0  0  0  0  0
  -23.9095   -5.2710  -24.4848 H   0  0  0  0  0  0  0  0  0  0  0  0
  -25.3064   -4.1907  -24.6540 H   0  0  0  0  0  0  0  0  0  0  0  0
  -24.6544   -4.5521  -23.0440 H   0  0  0  0  0  0  0  0  0  0  0  0
  -20.3558   -4.9655  -22.5707 H   0  0  0  0  0  0  0  0  0  0  0  0
  -20.1441   -3.2782  -22.0652 H   0  0  0  0  0  0  0  0  0  0  0  0
  -19.0783   -3.9744  -23.3011 H   0  0  0  0  0  0  0  0  0  0  0  0
  -16.9593   -3.2969  -26.6298 H   0  0  0  0  0  0  0  0  0  0  0  0
  -17.3425   -6.8419  -24.6538 H   0  0  0  0  0  0  0  0  0  0  0  0
  1  2  2  0  0  0  0
  1  3  1  0  0  0  0
  2  5  1  0  0  0  0
  2  7  1  0  0  0  0
  3  4  2  0  0  0  0
  3 12  1  0  0  0  0
  4  6  1  0  0  0  0
  4 27  1  0  0  0  0
  5  6  2  0  0  0  0
  5 34  1  0  0  0  0
  6 36  1  0  0  0  0
  7 24  2  0  0  0  0
  7 28  1  0  0  0  0
  8 21  1  0  0  0  0
  8 25  1  0  0  0  0
  8 30  2  0  0  0  0
  9 21  1  0  0  0  0
  9 26  1  0  0  0  0
  9 31  2  0  0  0  0
 10 25  1  0  0  0  0
 10 26  1  0  0  0  0
 10 32  2  0  0  0  0
 11 17  1  0  0  0  0
 11 29  1  0  0  0  0
 11 33  2  0  0  0  0
 12 21  1  0  0  0  0
 13 14  1  0  0  0  0
 13 17  1  0  0  0  0
 14 28  1  0  0  0  0
 15 17  1  0  0  0  0
 15 28  1  0  0  0  0
 16 19  1  0  0  0  0
 16 27  1  0  0  0  0
 18 20  1  0  0  0  0
 18 21  1  0  0  0  0
 18 27  1  0  0  0  0
 19 22  1  0  0  0  0
 19 35  1  0  0  0  0
 20 23  1  0  0  0  0
 20 35  1  0  0  0  0
 24 34  1  0  0  0  0
  1 37  1  0  0  0  0
 12 38  1  0  0  0  0
 12 39  1  0  0  0  0
 13 40  1  0  0  0  0
 13 41  1  0  0  0  0
 14 42  1  0  0  0  0
 14 43  1  0  0  0  0
 15 44  1  0  0  0  0
 15 45  1  0  0  0  0
 16 46  1  0  0  0  0
 16 47  1  0  0  0  0
 17 48  1  0  0  0  0
 18 49  1  0  0  0  0
 19 50  1  0  0  0  0
 20 51  1  0  0  0  0
 22 52  1  0  0  0  0
 22 53  1  0  0  0  0
 22 54  1  0  0  0  0
 23 55  1  0  0  0  0
 23 56  1  0  0  0  0
 23 57  1  0  0  0  0
 25 58  1  0  0  0  0
 26 59  1  0  0  0  0
M  CHG  1  29  -1
M  END
> <SMILES>
C[C@@H]1CN2[C@H]([C@H](C)O1)C1(Cc3cc4c(noc4c(c32)F)N2CC[C@@H](C2)C(=O)O)C(=O)NC(=O)NC1=O

> <FORMATTED_ID>
H3D-005667

> <MOLFORMULA>
C23H24FN5O7

> <Exact Mass>
501.17

> <XLogP>
-0.11

> <TPSA_NOPS>
154.6

> <s_m_source_file>
ligprep_h3d.sdf

> <i_m_source_file_index>
855

> <i_lp_mmshare_version>
55123

> <i_f3d_flags>
0

> <s_epik_input>
Tz1DMVtOSF1DKD1PKVtOSF1DKD1PKUMxMltDQEBIXTNOKFtDSDJdW0NAQEhdKFtDSDNdKU9bQ0BIXTNbQ0gzXSljNGMoW0NIMl0yKVtjSF1jNWMoYzRGKW9uYzVONltDSDJdW0NIMl1bQ0BASF0oW0NIMl02KUMoPU8pW09IXQ==

> <s_epik_cmdline>
J2VwaWtfcHl0aG9uJywgJy1waHQnLCAnMC41JywgJy1waCcsICc3LjUnLCAnLXRuJywgJzgnLCAnLW1hJywgJzUwMCcsICctaW1hZScsICc8aW5maWxlLm1hZT4nLCAnLW9tYWUnLCAnPG91dGZpbGUubWFlPic=

> <r_lp_tautomer_probability>
1

> <r_epik_Ionization_Penalty>
0.369289

> <r_epik_Ionization_Penalty_Charging>
0.000159383

> <r_epik_Ionization_Penalty_Neutral>
0.36913

> <r_epik_State_Penalty>
0.366447

> <r_epik_Charging_Adjusted_Penalty>
0.366606

> <i_epik_Tot_Q>
-1

> <i_epik_Tot_abs_Q>
1

> <s_lp_Force_Field>
S-OPLS

> <r_lp_Energy>
49.7778

> <b_lp_Chiralities_Consistent>
1

> <s_lp_Variant>
ligprep_h3d.sdf:855-1

> <ROCS_ShapeQuery>
_7L13

> <ROCS_TanimotoCombo>
0.758 

> <ROCS_ShapeTanimoto>
0.634 

> <ROCS_ColorTanimoto>
0.124 

> <ROCS_RefTversky>
0.786 

> <ROCS_RefColorTversky>
0.295 

> <ROCS_RefTverskyCombo>
1.081 

> <ROCS_FitTversky>
0.767 

> <ROCS_FitColorTversky>
0.176 

> <ROCS_FitTverskyCombo>
0.942 

> <ROCS_ColorScore>
-2.758

> <ROCS_Overlap>
1307.023

> <ROCS_Rank>
296                 

$$$$
ligprep_h3d.sdf:4413_1816
  -OEChem-08212117123D

 61 65  0     1  0  0  0  0  0999 V2000
  -19.7861   -5.1744  -36.1913 C   0  0  0  0  0  0  0  0  0  0  0  0
  -22.7728   -2.6789  -32.3394 C   0  0  0  0  0  0  0  0  0  0  0  0
  -19.1630   -5.8690  -37.2280 C   0  0  0  0  0  0  0  0  0  0  0  0
  -23.0072   -2.6587  -30.9643 C   0  0  0  0  0  0  0  0  0  0  0  0
  -20.6611   -4.8102  -25.4269 C   0  0  0  0  0  0  0  0  0  0  0  0
  -20.0791   -7.2445  -34.9805 C   0  0  0  0  0  0  0  0  0  0  0  0
  -22.5941   -3.7777  -26.4177 C   0  0  0  0  0  0  0  0  0  0  0  0
  -20.1728   -5.0016  -26.7093 C   0  0  0  0  0  0  0  0  0  0  0  0
  -20.2441   -5.8622  -35.0674 C   0  0  0  0  0  0  0  0  0  0  0  0
  -21.8955   -4.1859  -25.2869 C   0  0  0  0  0  0  0  0  0  0  0  0
  -19.4560   -7.9391  -36.0172 C   0  0  0  0  0  0  0  0  0  0  0  0
  -21.9998   -3.7331  -32.8424 C   0  0  0  0  0  0  0  0  0  0  0  0
  -18.9979   -7.2514  -37.1410 C   0  0  0  0  0  0  0  0  0  0  0  0
  -21.5260   -4.6756  -31.9402 C   0  0  0  0  0  0  0  0  0  0  0  0
  -22.4703   -3.6702  -30.1740 C   0  0  0  0  0  0  0  0  0  0  0  0
  -22.0191   -4.0151  -27.6558 C   0  0  0  0  0  0  0  0  0  0  0  0
  -20.8884   -5.1432  -33.9949 C   0  0  0  0  0  0  0  0  0  0  0  0
  -22.4586   -3.9596  -23.9499 C   0  0  0  0  0  0  0  0  0  0  0  0
  -24.0775   -5.7950  -24.2970 C   0  0  0  0  0  0  0  0  0  0  0  0
  -24.6514   -4.0406  -22.6540 C   0  0  0  0  0  0  0  0  0  0  0  0
  -25.4570   -5.6722  -24.9434 C   0  0  1  0  0  0  0  0  0  0  0  0
  -26.0366   -3.8760  -23.2765 C   0  0  2  0  0  0  0  0  0  0  0  0
  -25.9583   -7.0054  -25.4785 C   0  0  0  0  0  0  0  0  0  0  0  0
  -27.0890   -3.5089  -22.2409 C   0  0  0  0  0  0  0  0  0  0  0  0
  -19.2801   -9.4172  -35.9212 C   0  0  0  0  0  0  0  0  0  0  0  0
  -20.8223   -4.6187  -27.8314 N   0  0  0  0  0  0  0  0  0  0  0  0
  -21.5937   -4.0388  -34.1186 N   0  0  0  0  0  0  0  0  0  0  0  0
  -21.7178   -4.7092  -30.6112 N   0  0  0  0  0  0  0  0  0  0  0  0
  -20.8187   -5.5679  -32.6952 N   0  0  0  0  0  0  0  0  0  0  0  0
  -23.6915   -4.5425  -23.6463 N   0  0  0  0  0  0  0  0  0  0  0  0
  -22.7425   -3.5929  -28.7989 N   0  0  0  0  0  0  0  0  0  0  0  0
  -26.4321   -5.1804  -23.9107 N   0  3  0  0  0  0  0  0  0  0  0  0
  -21.7828   -3.2719  -23.1859 O   0  0  0  0  0  0  0  0  0  0  0  0
  -18.4000   -7.9105  -38.1432 F   0  0  0  0  0  0  0  0  0  0  0  0
  -19.7756   -9.9534  -34.7667 F   0  0  0  0  0  0  0  0  0  0  0  0
  -19.8949  -10.1073  -36.9268 F   0  0  0  0  0  0  0  0  0  0  0  0
  -17.9691   -9.7939  -35.9667 F   0  0  0  0  0  0  0  0  0  0  0  0
  -19.9073   -4.0969  -36.2738 H   0  0  0  0  0  0  0  0  0  0  0  0
  -23.1744   -1.9076  -32.9871 H   0  0  0  0  0  0  0  0  0  0  0  0
  -18.8053   -5.3345  -38.1032 H   0  0  0  0  0  0  0  0  0  0  0  0
  -23.6021   -1.8589  -30.5329 H   0  0  0  0  0  0  0  0  0  0  0  0
  -20.0905   -5.1413  -24.5657 H   0  0  0  0  0  0  0  0  0  0  0  0
  -20.4341   -7.7872  -34.1065 H   0  0  0  0  0  0  0  0  0  0  0  0
  -23.5595   -3.2879  -26.3288 H   0  0  0  0  0  0  0  0  0  0  0  0
  -19.2147   -5.4839  -26.8726 H   0  0  0  0  0  0  0  0  0  0  0  0
  -24.0690   -6.5772  -23.5277 H   0  0  0  0  0  0  0  0  0  0  0  0
  -23.3358   -6.0761  -25.0523 H   0  0  0  0  0  0  0  0  0  0  0  0
  -24.3239   -3.0869  -22.2314 H   0  0  0  0  0  0  0  0  0  0  0  0
  -24.6718   -4.7652  -21.8302 H   0  0  0  0  0  0  0  0  0  0  0  0
  -25.4476   -4.9263  -25.7470 H   0  0  0  0  0  0  0  0  0  0  0  0
  -26.0222   -3.1270  -24.0771 H   0  0  0  0  0  0  0  0  0  0  0  0
  -25.9687   -7.7495  -24.6809 H   0  0  0  0  0  0  0  0  0  0  0  0
  -25.3065   -7.3570  -26.2793 H   0  0  0  0  0  0  0  0  0  0  0  0
  -26.9702   -6.8955  -25.8706 H   0  0  0  0  0  0  0  0  0  0  0  0
  -27.1052   -4.2527  -21.4434 H   0  0  0  0  0  0  0  0  0  0  0  0
  -28.0746   -3.4699  -22.7062 H   0  0  0  0  0  0  0  0  0  0  0  0
  -26.8645   -2.5332  -21.8084 H   0  0  0  0  0  0  0  0  0  0  0  0
  -20.3359   -6.3883  -32.3528 H   0  0  0  0  0  0  0  0  0  0  0  0
  -23.6260   -3.1515  -28.5729 H   0  0  0  0  0  0  0  0  0  0  0  0
  -27.3594   -5.0758  -24.3459 H   0  0  0  0  0  0  0  0  0  0  0  0
  -26.5445   -5.8962  -23.1784 H   0  0  0  0  0  0  0  0  0  0  0  0
  1  3  1  0  0  0  0
  1  9  2  0  0  0  0
  2  4  1  0  0  0  0
  2 12  2  0  0  0  0
  3 13  2  0  0  0  0
  4 15  2  0  0  0  0
  5  8  1  0  0  0  0
  5 10  2  0  0  0  0
  6  9  1  0  0  0  0
  6 11  2  0  0  0  0
  7 10  1  0  0  0  0
  7 16  2  0  0  0  0
  8 26  2  0  0  0  0
  9 17  1  0  0  0  0
 10 18  1  0  0  0  0
 11 13  1  0  0  0  0
 11 25  1  0  0  0  0
 12 14  1  0  0  0  0
 12 27  1  0  0  0  0
 13 34  1  0  0  0  0
 14 28  2  0  0  0  0
 14 29  1  0  0  0  0
 15 28  1  0  0  0  0
 15 31  1  0  0  0  0
 16 26  1  0  0  0  0
 16 31  1  0  0  0  0
 17 27  2  0  0  0  0
 17 29  1  0  0  0  0
 18 30  1  0  0  0  0
 18 33  2  0  0  0  0
 19 21  1  0  0  0  0
 19 30  1  0  0  0  0
 20 22  1  0  0  0  0
 20 30  1  0  0  0  0
 21 23  1  0  0  0  0
 21 32  1  0  0  0  0
 22 24  1  0  0  0  0
 22 32  1  0  0  0  0
 25 35  1  0  0  0  0
 25 36  1  0  0  0  0
 25 37  1  0  0  0  0
  1 38  1  0  0  0  0
  2 39  1  0  0  0  0
  3 40  1  0  0  0  0
  4 41  1  0  0  0  0
  5 42  1  0  0  0  0
  6 43  1  0  0  0  0
  7 44  1  0  0  0  0
  8 45  1  0  0  0  0
 19 46  1  0  0  0  0
 19 47  1  0  0  0  0
 20 48  1  0  0  0  0
 20 49  1  0  0  0  0
 21 50  1  0  0  0  0
 22 51  1  0  0  0  0
 23 52  1  0  0  0  0
 23 53  1  0  0  0  0
 23 54  1  0  0  0  0
 24 55  1  0  0  0  0
 24 56  1  0  0  0  0
 24 57  1  0  0  0  0
 29 58  1  0  0  0  0
 31 59  1  0  0  0  0
 32 60  1  0  0  0  0
 32 61  1  0  0  0  0
M  CHG  1  32   1
M  END
> <SMILES>
C[C@@H]1CN(C[C@H](C)N1)C(=O)c1ccnc(c1)Nc1ccc2nc([nH]c2n1)-c1ccc(c(c1)C(F)(F)F)F

> <FORMATTED_ID>
H3D-003997

> <MOLFORMULA>
C25H23F4N7O

> <Exact Mass>
513.19

> <XLogP>
5.06

> <TPSA_NOPS>
98.8

> <s_m_source_file>
ligprep_h3d.sdf

> <i_m_source_file_index>
4413

> <i_lp_mmshare_version>
55123

> <i_f3d_flags>
0

> <s_epik_input>
W0NIM11bQ0BASF0xW0NIMl1OKFtDSDJdW0NASF0oW0NIM10pW05IXTEpQyg9TyljMltjSF1bY0hdbmMoW2NIXTIpW05IXWMoW2NIXVtjSF0zKVtuSF1jKGMzNCluYyhuNCktYzVbY0hdW2NIXWMoRiljKFtjSF01KUMoRikoRilG

> <s_epik_cmdline>
J2VwaWtfcHl0aG9uJywgJy1waHQnLCAnMC41JywgJy1waCcsICc3LjUnLCAnLXRuJywgJzgnLCAnLW1hJywgJzUwMCcsICctaW1hZScsICc8aW5maWxlLm1hZT4nLCAnLW9tYWUnLCAnPG91dGZpbGUubWFlPic=

> <r_lp_tautomer_probability>
1

> <r_epik_Ionization_Penalty>
0.273815

> <r_epik_Ionization_Penalty_Charging>
0.273494

> <r_epik_Ionization_Penalty_Neutral>
0.000321466

> <r_epik_State_Penalty>
0.287894

> <r_epik_Charging_Adjusted_Penalty>
0.561388

> <i_epik_Tot_Q>
1

> <i_epik_Tot_abs_Q>
1

> <s_lp_Force_Field>
S-OPLS

> <r_lp_Energy>
52.5004

> <b_lp_Chiralities_Consistent>
1

> <s_lp_Variant>
ligprep_h3d.sdf:4413-1

> <ROCS_ShapeQuery>
_7L13

> <ROCS_TanimotoCombo>
0.803 

> <ROCS_ShapeTanimoto>
0.627 

> <ROCS_ColorTanimoto>
0.176 

> <ROCS_RefTversky>
0.786 

> <ROCS_RefColorTversky>
0.358 

> <ROCS_RefTverskyCombo>
1.144 

> <ROCS_FitTversky>
0.756 

> <ROCS_FitColorTversky>
0.257 

> <ROCS_FitTverskyCombo>
1.013 

> <ROCS_ColorScore>
-3.294

> <ROCS_Overlap>
1308.030

> <ROCS_Rank>
297                 

$$$$
ligprep_h3d.sdf:4987_1665
  -OEChem-08212117123D

 62 66  0     1  0  0  0  0  0999 V2000
  -20.5143   -6.2181  -32.6368 C   0  0  0  0  0  0  0  0  0  0  0  0
  -20.2332   -4.4019  -34.2051 C   0  0  0  0  0  0  0  0  0  0  0  0
  -23.4411   -4.2884  -24.2610 C   0  0  0  0  0  0  0  0  0  0  0  0
  -25.8113   -4.3842  -24.7194 C   0  0  0  0  0  0  0  0  0  0  0  0
  -20.0043   -7.1110  -33.5793 C   0  0  0  0  0  0  0  0  0  0  0  0
  -19.7231   -5.2948  -35.1476 C   0  0  0  0  0  0  0  0  0  0  0  0
  -23.6736   -4.7441  -22.9634 C   0  0  0  0  0  0  0  0  0  0  0  0
  -26.0438   -4.8399  -23.4217 C   0  0  0  0  0  0  0  0  0  0  0  0
  -17.0873   -6.0839  -26.1170 C   0  0  0  0  0  0  0  0  0  0  0  0
  -16.9872   -3.7153  -25.6517 C   0  0  0  0  0  0  0  0  0  0  0  0
  -15.1334   -5.1436  -25.0515 C   0  0  0  0  0  0  0  0  0  0  0  0
  -20.6288   -4.8636  -32.9497 C   0  0  0  0  0  0  0  0  0  0  0  0
  -17.6719   -4.8183  -26.1619 C   0  0  0  0  0  0  0  0  0  0  0  0
  -24.5100   -4.1084  -25.1391 C   0  0  0  0  0  0  0  0  0  0  0  0
  -19.6086   -6.6493  -34.8347 C   0  0  0  0  0  0  0  0  0  0  0  0
  -24.9749   -5.0198  -22.5437 C   0  0  0  0  0  0  0  0  0  0  0  0
  -15.8180   -6.2466  -25.5617 C   0  0  0  0  0  0  0  0  0  0  0  0
  -15.7180   -3.8779  -25.0965 C   0  0  0  0  0  0  0  0  0  0  0  0
  -22.1690   -4.5841  -31.0260 C   0  0  0  0  0  0  0  0  0  0  0  0
  -22.7362   -5.1701  -28.6836 C   0  0  0  0  0  0  0  0  0  0  0  0
  -19.8514   -5.5874  -27.3025 C   0  0  0  0  0  0  0  0  0  0  0  0
  -19.9062   -3.6091  -26.5961 C   0  0  0  0  0  0  0  0  0  0  0  0
  -20.6927   -3.9150  -29.0773 C   0  0  0  0  0  0  0  0  0  0  0  0
  -22.2613   -4.6320  -27.3377 C   0  0  1  0  0  0  0  0  0  0  0  0
  -20.7768   -4.3789  -27.6193 C   0  0  0  0  0  0  0  0  0  0  0  0
  -22.9903   -3.3428  -26.9639 C   0  0  0  0  0  0  0  0  0  0  0  0
  -21.1776   -3.9019  -31.9346 C   0  0  2  0  0  0  0  0  0  0  0  0
  -18.9471   -4.6543  -26.7204 N   0  0  0  0  0  0  0  0  0  0  0  0
  -21.8682   -4.5452  -29.6738 N   0  0  0  0  0  0  0  0  0  0  0  0
  -24.2771   -3.6521  -26.4385 N   0  0  0  0  0  0  0  0  0  0  0  0
  -23.1670   -5.1339  -31.4950 O   0  0  0  0  0  0  0  0  0  0  0  0
  -19.1097   -7.5205  -35.7537 O   0  0  0  0  0  0  0  0  0  0  0  0
  -21.8552   -2.8335  -32.5663 O   0  0  0  0  0  0  0  0  0  0  0  0
  -25.1982   -5.4574  -21.2976 F   0  0  0  0  0  0  0  0  0  0  0  0
  -15.2563   -7.4619  -25.5204 F   0  0  0  0  0  0  0  0  0  0  0  0
  -15.0597   -2.8184  -24.6083 F   0  0  0  0  0  0  0  0  0  0  0  0
  -20.8202   -6.5865  -31.6613 H   0  0  0  0  0  0  0  0  0  0  0  0
  -20.3189   -3.3482  -34.4577 H   0  0  0  0  0  0  0  0  0  0  0  0
  -22.4230   -4.0769  -24.5777 H   0  0  0  0  0  0  0  0  0  0  0  0
  -26.6516   -4.2473  -25.3952 H   0  0  0  0  0  0  0  0  0  0  0  0
  -19.9172   -8.1651  -33.3295 H   0  0  0  0  0  0  0  0  0  0  0  0
  -19.4163   -4.9289  -36.1234 H   0  0  0  0  0  0  0  0  0  0  0  0
  -22.8417   -4.8845  -22.2796 H   0  0  0  0  0  0  0  0  0  0  0  0
  -27.0568   -5.0545  -23.0944 H   0  0  0  0  0  0  0  0  0  0  0  0
  -17.6115   -6.9498  -26.5124 H   0  0  0  0  0  0  0  0  0  0  0  0
  -17.4331   -2.7245  -25.6825 H   0  0  0  0  0  0  0  0  0  0  0  0
  -14.1446   -5.2708  -24.6207 H   0  0  0  0  0  0  0  0  0  0  0  0
  -22.5688   -6.2514  -28.7536 H   0  0  0  0  0  0  0  0  0  0  0  0
  -23.7902   -4.9710  -28.9018 H   0  0  0  0  0  0  0  0  0  0  0  0
  -20.2376   -6.3030  -26.5682 H   0  0  0  0  0  0  0  0  0  0  0  0
  -19.4266   -6.1244  -28.1548 H   0  0  0  0  0  0  0  0  0  0  0  0
  -19.5257   -2.6357  -26.9158 H   0  0  0  0  0  0  0  0  0  0  0  0
  -20.3158   -3.5420  -25.5827 H   0  0  0  0  0  0  0  0  0  0  0  0
  -20.8116   -2.8301  -29.1674 H   0  0  0  0  0  0  0  0  0  0  0  0
  -19.7790   -4.2240  -29.5929 H   0  0  0  0  0  0  0  0  0  0  0  0
  -22.4156   -5.3696  -26.5424 H   0  0  0  0  0  0  0  0  0  0  0  0
  -22.3829   -2.8340  -26.2174 H   0  0  0  0  0  0  0  0  0  0  0  0
  -23.0787   -2.7480  -27.8712 H   0  0  0  0  0  0  0  0  0  0  0  0
  -20.3818   -3.4879  -31.3131 H   0  0  0  0  0  0  0  0  0  0  0  0
  -25.0992   -3.5378  -27.0373 H   0  0  0  0  0  0  0  0  0  0  0  0
  -18.8808   -7.0516  -36.5720 H   0  0  0  0  0  0  0  0  0  0  0  0
  -22.5828   -3.2205  -33.0836 H   0  0  0  0  0  0  0  0  0  0  0  0
  1  5  1  0  0  0  0
  1 12  2  0  0  0  0
  2  6  2  0  0  0  0
  2 12  1  0  0  0  0
  3  7  1  0  0  0  0
  3 14  2  0  0  0  0
  4  8  2  0  0  0  0
  4 14  1  0  0  0  0
  5 15  2  0  0  0  0
  6 15  1  0  0  0  0
  7 16  2  0  0  0  0
  8 16  1  0  0  0  0
  9 13  2  0  0  0  0
  9 17  1  0  0  0  0
 10 13  1  0  0  0  0
 10 18  2  0  0  0  0
 11 17  2  0  0  0  0
 11 18  1  0  0  0  0
 12 27  1  0  0  0  0
 13 28  1  0  0  0  0
 14 30  1  0  0  0  0
 15 32  1  0  0  0  0
 16 34  1  0  0  0  0
 17 35  1  0  0  0  0
 18 36  1  0  0  0  0
 19 27  1  0  0  0  0
 19 29  1  0  0  0  0
 19 31  2  0  0  0  0
 20 24  1  0  0  0  0
 20 29  1  0  0  0  0
 21 25  1  0  0  0  0
 21 28  1  0  0  0  0
 22 25  1  0  0  0  0
 22 28  1  0  0  0  0
 23 25  1  0  0  0  0
 23 29  1  0  0  0  0
 24 25  1  0  0  0  0
 24 26  1  0  0  0  0
 26 30  1  0  0  0  0
 27 33  1  0  0  0  0
  1 37  1  0  0  0  0
  2 38  1  0  0  0  0
  3 39  1  0  0  0  0
  4 40  1  0  0  0  0
  5 41  1  0  0  0  0
  6 42  1  0  0  0  0
  7 43  1  0  0  0  0
  8 44  1  0  0  0  0
  9 45  1  0  0  0  0
 10 46  1  0  0  0  0
 11 47  1  0  0  0  0
 20 48  1  0  0  0  0
 20 49  1  0  0  0  0
 21 50  1  0  0  0  0
 21 51  1  0  0  0  0
 22 52  1  0  0  0  0
 22 53  1  0  0  0  0
 23 54  1  0  0  0  0
 23 55  1  0  0  0  0
 24 56  1  0  0  0  0
 26 57  1  0  0  0  0
 26 58  1  0  0  0  0
 27 59  1  0  0  0  0
 30 60  1  0  0  0  0
 32 61  1  0  0  0  0
 33 62  1  0  0  0  0
M  END
> <SMILES>
O[C@@H](C(=O)N1CC(CNc2ccc(cc2)F)C2(C1)CN(C2)c1cc(cc(c1)F)F)c1ccc(cc1)O

> <FORMATTED_ID>
H3D-008736

> <MOLFORMULA>
C27H26F3N3O3

> <Exact Mass>
497.19

> <XLogP>
3.3

> <TPSA_NOPS>
76

> <s_m_source_file>
ligprep_h3d.sdf

> <i_m_source_file_index>
4987

> <i_lp_mmshare_version>
55123

> <i_f3d_flags>
0

> <s_epik_input>
W2NIXTFbY0hdYyhbT0hdKVtjSF1bY0hdYzFbQ0BASF0oW09IXSlDKD1PKU4oW0NIMl0yKVtDSDJdW0NASF0oW0NIMl1bTkhdYzNbY0hdW2NIXWMoRilbY0hdW2NIXTMpQzI0W0NIMl1OKFtDSDJdNCljNVtjSF1jKEYpW2NIXWMoRilbY0hdNQ==

> <s_epik_cmdline>
J2VwaWtfcHl0aG9uJywgJy1waHQnLCAnMC41JywgJy1waCcsICc3LjUnLCAnLXRuJywgJzgnLCAnLW1hJywgJzUwMCcsICctaW1hZScsICc8aW5maWxlLm1hZT4nLCAnLW9tYWUnLCAnPG91dGZpbGUubWFlPic=

> <r_lp_tautomer_probability>
1

> <r_epik_Ionization_Penalty>
0.141909

> <r_epik_Ionization_Penalty_Charging>
0

> <r_epik_Ionization_Penalty_Neutral>
0.141909

> <r_epik_State_Penalty>
0.127424

> <r_epik_Charging_Adjusted_Penalty>
0.127424

> <i_epik_Tot_Q>
0

> <i_epik_Tot_abs_Q>
0

> <s_lp_Force_Field>
S-OPLS

> <r_lp_Energy>
39.6861

> <b_lp_Chiralities_Consistent>
1

> <s_lp_Variant>
ligprep_h3d.sdf:4987-1

> <ROCS_ShapeQuery>
_7L13

> <ROCS_TanimotoCombo>
0.710 

> <ROCS_ShapeTanimoto>
0.650 

> <ROCS_ColorTanimoto>
0.059 

> <ROCS_RefTversky>
0.786 

> <ROCS_RefColorTversky>
0.123 

> <ROCS_RefTverskyCombo>
0.909 

> <ROCS_FitTversky>
0.790 

> <ROCS_FitColorTversky>
0.103 

> <ROCS_FitTverskyCombo>
0.893 

> <ROCS_ColorScore>
-1.124

> <ROCS_Overlap>
1304.784

> <ROCS_Rank>
298                 

$$$$
ligprep_h3d.sdf:4872_920
  -OEChem-08212117123D

 69 73  0     0  0  0  0  0  0999 V2000
  -19.5756   -8.0868  -35.0155 C   0  0  0  0  0  0  0  0  0  0  0  0
  -26.4237   -4.0662  -21.1708 C   0  0  0  0  0  0  0  0  0  0  0  0
  -19.0369   -6.8007  -34.9792 C   0  0  0  0  0  0  0  0  0  0  0  0
  -20.6951   -8.3961  -34.2430 C   0  0  0  0  0  0  0  0  0  0  0  0
  -25.2574   -4.7921  -21.4124 C   0  0  0  0  0  0  0  0  0  0  0  0
  -27.1345   -3.5134  -22.2361 C   0  0  0  0  0  0  0  0  0  0  0  0
  -19.6176   -5.8239  -34.1703 C   0  0  0  0  0  0  0  0  0  0  0  0
  -21.2758   -7.4193  -33.4341 C   0  0  0  0  0  0  0  0  0  0  0  0
  -24.8017   -4.9650  -22.7193 C   0  0  0  0  0  0  0  0  0  0  0  0
  -26.6788   -3.6864  -23.5431 C   0  0  0  0  0  0  0  0  0  0  0  0
  -20.5655   -4.2955  -25.2972 C   0  0  0  0  0  0  0  0  0  0  0  0
  -22.5914   -4.0917  -27.2351 C   0  0  0  0  0  0  0  0  0  0  0  0
  -20.2767   -4.5352  -26.6367 C   0  0  0  0  0  0  0  0  0  0  0  0
  -20.7371   -6.1332  -33.3978 C   0  0  0  0  0  0  0  0  0  0  0  0
  -25.5125   -4.4122  -23.7847 C   0  0  0  0  0  0  0  0  0  0  0  0
  -21.2925   -4.4320  -27.5968 C   0  0  0  0  0  0  0  0  0  0  0  0
  -21.8679   -3.9567  -24.9258 C   0  0  0  0  0  0  0  0  0  0  0  0
  -22.8743   -3.8545  -25.8893 C   0  0  0  0  0  0  0  0  0  0  0  0
  -21.5204   -4.6822  -30.0763 C   0  0  0  0  0  0  0  0  0  0  0  0
  -18.2817   -6.1541  -26.7036 C   0  0  0  0  0  0  0  0  0  0  0  0
  -17.9587   -3.6849  -27.2316 C   0  0  0  0  0  0  0  0  0  0  0  0
  -19.3833   -5.1379  -28.7400 C   0  0  0  0  0  0  0  0  0  0  0  0
  -17.5004   -5.9618  -25.4097 C   0  0  0  0  0  0  0  0  0  0  0  0
  -17.2141   -3.5242  -25.9126 C   0  0  0  0  0  0  0  0  0  0  0  0
  -18.9386   -4.8779  -27.2684 C   0  0  0  0  0  0  0  0  0  0  0  0
  -15.6556   -4.6723  -24.3456 C   0  0  0  0  0  0  0  0  0  0  0  0
  -22.0005   -2.3822  -23.1484 C   0  0  0  0  0  0  0  0  0  0  0  0
  -21.3624   -5.0823  -32.5267 C   0  0  0  0  0  0  0  0  0  0  0  0
  -25.0227   -4.5977  -25.1908 C   0  0  0  0  0  0  0  0  0  0  0  0
  -20.7925   -4.7278  -28.8808 N   0  0  0  0  0  0  0  0  0  0  0  0
  -20.7884   -5.0673  -31.2006 N   0  0  0  0  0  0  0  0  0  0  0  0
  -16.5305   -4.8198  -25.5606 N   0  3  0  0  0  0  0  0  0  0  0  0
  -22.7000   -4.3347  -30.1660 O   0  0  0  0  0  0  0  0  0  0  0  0
  -22.1464   -3.7226  -23.6120 O   0  0  0  0  0  0  0  0  0  0  0  0
  -24.1456   -3.5242  -25.5236 O   0  0  0  0  0  0  0  0  0  0  0  0
  -19.1242   -8.8469  -35.6464 H   0  0  0  0  0  0  0  0  0  0  0  0
  -26.7791   -3.9328  -20.1532 H   0  0  0  0  0  0  0  0  0  0  0  0
  -18.1659   -6.5594  -35.5815 H   0  0  0  0  0  0  0  0  0  0  0  0
  -21.1155   -9.3970  -34.2719 H   0  0  0  0  0  0  0  0  0  0  0  0
  -24.7044   -5.2235  -20.5831 H   0  0  0  0  0  0  0  0  0  0  0  0
  -28.0432   -2.9492  -22.0484 H   0  0  0  0  0  0  0  0  0  0  0  0
  -19.1909   -4.8246  -34.1482 H   0  0  0  0  0  0  0  0  0  0  0  0
  -22.1478   -7.6694  -32.8355 H   0  0  0  0  0  0  0  0  0  0  0  0
  -23.8918   -5.5319  -22.8981 H   0  0  0  0  0  0  0  0  0  0  0  0
  -27.2391   -3.2520  -24.3668 H   0  0  0  0  0  0  0  0  0  0  0  0
  -19.8000   -4.3559  -24.5335 H   0  0  0  0  0  0  0  0  0  0  0  0
  -23.3944   -4.0136  -27.9580 H   0  0  0  0  0  0  0  0  0  0  0  0
  -17.5785   -6.5483  -27.4510 H   0  0  0  0  0  0  0  0  0  0  0  0
  -19.0343   -6.9384  -26.5508 H   0  0  0  0  0  0  0  0  0  0  0  0
  -18.4791   -2.7469  -27.4644 H   0  0  0  0  0  0  0  0  0  0  0  0
  -17.2031   -3.8167  -28.0185 H   0  0  0  0  0  0  0  0  0  0  0  0
  -18.7754   -4.5883  -29.4678 H   0  0  0  0  0  0  0  0  0  0  0  0
  -19.3346   -6.2020  -29.0042 H   0  0  0  0  0  0  0  0  0  0  0  0
  -18.1420   -5.7504  -24.5509 H   0  0  0  0  0  0  0  0  0  0  0  0
  -16.9123   -6.8600  -25.1909 H   0  0  0  0  0  0  0  0  0  0  0  0
  -16.4339   -2.7613  -26.0122 H   0  0  0  0  0  0  0  0  0  0  0  0
  -17.8707   -3.2499  -25.0824 H   0  0  0  0  0  0  0  0  0  0  0  0
  -16.2984   -4.4221  -23.4996 H   0  0  0  0  0  0  0  0  0  0  0  0
  -15.1458   -5.6239  -24.1834 H   0  0  0  0  0  0  0  0  0  0  0  0
  -14.9398   -3.8724  -24.5445 H   0  0  0  0  0  0  0  0  0  0  0  0
  -22.2529   -2.3337  -22.0863 H   0  0  0  0  0  0  0  0  0  0  0  0
  -22.6591   -1.7241  -23.7208 H   0  0  0  0  0  0  0  0  0  0  0  0
  -20.9634   -2.0684  -23.2888 H   0  0  0  0  0  0  0  0  0  0  0  0
  -21.2267   -4.0872  -32.9643 H   0  0  0  0  0  0  0  0  0  0  0  0
  -22.4400   -5.2479  -32.4232 H   0  0  0  0  0  0  0  0  0  0  0  0
  -24.4834   -5.5453  -25.2961 H   0  0  0  0  0  0  0  0  0  0  0  0
  -25.8614   -4.6079  -25.8953 H   0  0  0  0  0  0  0  0  0  0  0  0
  -19.8209   -5.3459  -31.0829 H   0  0  0  0  0  0  0  0  0  0  0  0
  -15.9023   -5.0549  -26.3414 H   0  0  0  0  0  0  0  0  0  0  0  0
  1  3  2  0  0  0  0
  1  4  1  0  0  0  0
  2  5  2  0  0  0  0
  2  6  1  0  0  0  0
  3  7  1  0  0  0  0
  4  8  2  0  0  0  0
  5  9  1  0  0  0  0
  6 10  2  0  0  0  0
  7 14  2  0  0  0  0
  8 14  1  0  0  0  0
  9 15  2  0  0  0  0
 10 15  1  0  0  0  0
 11 13  1  0  0  0  0
 11 17  2  0  0  0  0
 12 16  1  0  0  0  0
 12 18  2  0  0  0  0
 13 16  2  0  0  0  0
 13 25  1  0  0  0  0
 14 28  1  0  0  0  0
 15 29  1  0  0  0  0
 16 30  1  0  0  0  0
 17 18  1  0  0  0  0
 17 34  1  0  0  0  0
 18 35  1  0  0  0  0
 19 30  1  0  0  0  0
 19 31  1  0  0  0  0
 19 33  2  0  0  0  0
 20 23  1  0  0  0  0
 20 25  1  0  0  0  0
 21 24  1  0  0  0  0
 21 25  1  0  0  0  0
 22 25  1  0  0  0  0
 22 30  1  0  0  0  0
 23 32  1  0  0  0  0
 24 32  1  0  0  0  0
 26 32  1  0  0  0  0
 27 34  1  0  0  0  0
 28 31  1  0  0  0  0
 29 35  1  0  0  0  0
  1 36  1  0  0  0  0
  2 37  1  0  0  0  0
  3 38  1  0  0  0  0
  4 39  1  0  0  0  0
  5 40  1  0  0  0  0
  6 41  1  0  0  0  0
  7 42  1  0  0  0  0
  8 43  1  0  0  0  0
  9 44  1  0  0  0  0
 10 45  1  0  0  0  0
 11 46  1  0  0  0  0
 12 47  1  0  0  0  0
 20 48  1  0  0  0  0
 20 49  1  0  0  0  0
 21 50  1  0  0  0  0
 21 51  1  0  0  0  0
 22 52  1  0  0  0  0
 22 53  1  0  0  0  0
 23 54  1  0  0  0  0
 23 55  1  0  0  0  0
 24 56  1  0  0  0  0
 24 57  1  0  0  0  0
 26 58  1  0  0  0  0
 26 59  1  0  0  0  0
 26 60  1  0  0  0  0
 27 61  1  0  0  0  0
 27 62  1  0  0  0  0
 27 63  1  0  0  0  0
 28 64  1  0  0  0  0
 28 65  1  0  0  0  0
 29 66  1  0  0  0  0
 29 67  1  0  0  0  0
 31 68  1  0  0  0  0
 32 69  1  0  0  0  0
M  CHG  1  32   1
M  END
> <SMILES>
COc1cc2c(cc1OCc1ccccc1)N(CC12CCN(C)CC1)C(=O)NCc1ccccc1

> <FORMATTED_ID>
H3D-008208

> <MOLFORMULA>
C29H33N3O3

> <Exact Mass>
471.25

> <XLogP>
5.65

> <TPSA_NOPS>
54

> <s_m_source_file>
ligprep_h3d.sdf

> <i_m_source_file_index>
4872

> <i_lp_mmshare_version>
55123

> <i_f3d_flags>
0

> <s_epik_input>
W2NIXTFbY0hdW2NIXVtjSF1bY0hdYzFbQ0gyXU9jKGMoW2NIXTIpT1tDSDNdKVtjSF1jKGMyQzM0W0NIMl1bQ0gyXU4oW0NIM10pW0NIMl1bQ0gyXTQpTihbQ0gyXTMpQyg9TylbTkhdW0NIMl1jNVtjSF1bY0hdW2NIXVtjSF1bY0hdNQ==

> <s_epik_cmdline>
J2VwaWtfcHl0aG9uJywgJy1waHQnLCAnMC41JywgJy1waCcsICc3LjUnLCAnLXRuJywgJzgnLCAnLW1hJywgJzUwMCcsICctaW1hZScsICc8aW5maWxlLm1hZT4nLCAnLW9tYWUnLCAnPG91dGZpbGUubWFlPic=

> <r_lp_tautomer_probability>
1

> <r_epik_Ionization_Penalty>
0.0102799

> <r_epik_Ionization_Penalty_Charging>
0.0102684

> <r_epik_Ionization_Penalty_Neutral>
1.14525e-05

> <r_epik_State_Penalty>
0.00784347

> <r_epik_Charging_Adjusted_Penalty>
0.0181119

> <i_epik_Tot_Q>
1

> <i_epik_Tot_abs_Q>
1

> <s_lp_Force_Field>
S-OPLS

> <r_lp_Energy>
75.0323

> <b_lp_Chiralities_Consistent>
1

> <s_lp_Variant>
ligprep_h3d.sdf:4872-1

> <ROCS_ShapeQuery>
_7L13

> <ROCS_TanimotoCombo>
0.742 

> <ROCS_ShapeTanimoto>
0.669 

> <ROCS_ColorTanimoto>
0.073 

> <ROCS_RefTversky>
0.786 

> <ROCS_RefColorTversky>
0.150 

> <ROCS_RefTverskyCombo>
0.936 

> <ROCS_FitTversky>
0.818 

> <ROCS_FitColorTversky>
0.125 

> <ROCS_FitTverskyCombo>
0.943 

> <ROCS_ColorScore>
-1.366

> <ROCS_Overlap>
1302.263

> <ROCS_Rank>
299                 

$$$$
ligprep_h3d.sdf:3184_1822
  -OEChem-08212117123D

 59 63  0     0  0  0  0  0  0999 V2000
  -23.3431   -2.6261  -31.1042 C   0  0  0  0  0  0  0  0  0  0  0  0
  -23.3230   -4.1969  -23.3425 C   0  0  0  0  0  0  0  0  0  0  0  0
  -23.8978   -5.1008  -25.5080 C   0  0  0  0  0  0  0  0  0  0  0  0
  -22.6801   -2.8333  -29.8946 C   0  0  0  0  0  0  0  0  0  0  0  0
  -23.1957   -3.5419  -32.1461 C   0  0  0  0  0  0  0  0  0  0  0  0
  -24.6713   -4.1953  -22.9853 C   0  0  0  0  0  0  0  0  0  0  0  0
  -25.2461   -5.0993  -25.1508 C   0  0  0  0  0  0  0  0  0  0  0  0
  -21.7222   -4.8718  -30.7687 C   0  0  0  0  0  0  0  0  0  0  0  0
  -20.4149   -4.7990  -24.2004 C   0  0  0  0  0  0  0  0  0  0  0  0
  -22.9362   -4.6496  -24.6039 C   0  0  0  0  0  0  0  0  0  0  0  0
  -21.8696   -3.9561  -29.7269 C   0  0  0  0  0  0  0  0  0  0  0  0
  -22.3853   -4.6647  -31.9783 C   0  0  0  0  0  0  0  0  0  0  0  0
  -25.6329   -4.6465  -23.8894 C   0  0  0  0  0  0  0  0  0  0  0  0
  -21.5416   -4.6516  -24.9732 C   0  0  0  0  0  0  0  0  0  0  0  0
  -19.7015   -4.5520  -26.1991 C   0  0  0  0  0  0  0  0  0  0  0  0
  -19.0041   -4.4183  -27.4195 C   0  0  0  0  0  0  0  0  0  0  0  0
  -19.6855   -4.2323  -28.5565 C   0  0  0  0  0  0  0  0  0  0  0  0
  -21.1789   -4.1714  -28.4651 C   0  0  0  0  0  0  0  0  0  0  0  0
  -22.2317   -5.6217  -33.0686 C   0  0  0  0  0  0  0  0  0  0  0  0
  -19.8532   -4.8373  -33.5828 C   0  0  0  0  0  0  0  0  0  0  0  0
  -20.5537   -7.1513  -34.0622 C   0  0  0  0  0  0  0  0  0  0  0  0
  -19.1652   -4.7958  -34.9495 C   0  0  0  0  0  0  0  0  0  0  0  0
  -19.8675   -7.0563  -35.4236 C   0  0  0  0  0  0  0  0  0  0  0  0
  -18.0410   -6.0765  -36.6541 C   0  0  0  0  0  0  0  0  0  0  0  0
  -27.9109   -3.0464  -23.9529 C   0  0  0  0  0  0  0  0  0  0  0  0
  -19.2784   -4.7370  -24.9652 N   0  0  0  0  0  0  0  0  0  0  0  0
  -21.8527   -4.3074  -27.3575 N   0  0  0  0  0  0  0  0  0  0  0  0
  -21.0806   -4.4922  -26.2534 N   0  0  0  0  0  0  0  0  0  0  0  0
  -20.9347   -5.8302  -33.5639 N   0  0  0  0  0  0  0  0  0  0  0  0
  -18.7232   -6.1355  -35.3620 N   0  0  0  0  0  0  0  0  0  0  0  0
  -23.2269   -6.1994  -33.5046 O   0  0  0  0  0  0  0  0  0  0  0  0
  -27.9991   -5.6503  -24.2475 O   0  0  0  0  0  0  0  0  0  0  0  0
  -27.4243   -4.6911  -21.9902 O   0  0  0  0  0  0  0  0  0  0  0  0
  -27.3203   -4.6446  -23.4424 S   0  0  0  0  0  0  0  0  0  0  0  0
  -23.9740   -1.7516  -31.2349 H   0  0  0  0  0  0  0  0  0  0  0  0
  -22.5853   -3.8421  -22.6267 H   0  0  0  0  0  0  0  0  0  0  0  0
  -23.6121   -5.4570  -26.4950 H   0  0  0  0  0  0  0  0  0  0  0  0
  -22.8023   -2.1132  -29.0894 H   0  0  0  0  0  0  0  0  0  0  0  0
  -23.7172   -3.3705  -33.0844 H   0  0  0  0  0  0  0  0  0  0  0  0
  -24.9618   -3.8406  -22.0000 H   0  0  0  0  0  0  0  0  0  0  0  0
  -25.9871   -5.4529  -25.8628 H   0  0  0  0  0  0  0  0  0  0  0  0
  -21.0901   -5.7471  -30.6380 H   0  0  0  0  0  0  0  0  0  0  0  0
  -20.3596   -4.9476  -23.1312 H   0  0  0  0  0  0  0  0  0  0  0  0
  -17.9210   -4.4658  -27.4238 H   0  0  0  0  0  0  0  0  0  0  0  0
  -19.1943   -4.1231  -29.5152 H   0  0  0  0  0  0  0  0  0  0  0  0
  -19.1386   -5.1283  -32.8030 H   0  0  0  0  0  0  0  0  0  0  0  0
  -20.2225   -3.8397  -33.3309 H   0  0  0  0  0  0  0  0  0  0  0  0
  -21.4324   -7.8011  -34.1326 H   0  0  0  0  0  0  0  0  0  0  0  0
  -19.8785   -7.5947  -33.3198 H   0  0  0  0  0  0  0  0  0  0  0  0
  -19.8489   -4.3616  -35.6912 H   0  0  0  0  0  0  0  0  0  0  0  0
  -18.2986   -4.1278  -34.8748 H   0  0  0  0  0  0  0  0  0  0  0  0
  -19.5214   -8.0586  -35.7037 H   0  0  0  0  0  0  0  0  0  0  0  0
  -20.5928   -6.7361  -36.1834 H   0  0  0  0  0  0  0  0  0  0  0  0
  -17.7182   -7.0869  -36.9454 H   0  0  0  0  0  0  0  0  0  0  0  0
  -18.7293   -5.6782  -37.4141 H   0  0  0  0  0  0  0  0  0  0  0  0
  -17.1623   -5.4195  -36.5749 H   0  0  0  0  0  0  0  0  0  0  0  0
  -28.9703   -2.9745  -23.7018 H   0  0  0  0  0  0  0  0  0  0  0  0
  -27.3396   -2.2828  -23.4229 H   0  0  0  0  0  0  0  0  0  0  0  0
  -27.7661   -2.9538  -25.0302 H   0  0  0  0  0  0  0  0  0  0  0  0
  1  4  2  0  0  0  0
  1  5  1  0  0  0  0
  2  6  1  0  0  0  0
  2 10  2  0  0  0  0
  3  7  2  0  0  0  0
  3 10  1  0  0  0  0
  4 11  1  0  0  0  0
  5 12  2  0  0  0  0
  6 13  2  0  0  0  0
  7 13  1  0  0  0  0
  8 11  2  0  0  0  0
  8 12  1  0  0  0  0
  9 14  2  0  0  0  0
  9 26  1  0  0  0  0
 10 14  1  0  0  0  0
 11 18  1  0  0  0  0
 12 19  1  0  0  0  0
 13 34  1  0  0  0  0
 14 28  1  0  0  0  0
 15 16  1  0  0  0  0
 15 26  2  0  0  0  0
 15 28  1  0  0  0  0
 16 17  2  0  0  0  0
 17 18  1  0  0  0  0
 18 27  2  0  0  0  0
 19 29  1  0  0  0  0
 19 31  2  0  0  0  0
 20 22  1  0  0  0  0
 20 29  1  0  0  0  0
 21 23  1  0  0  0  0
 21 29  1  0  0  0  0
 22 30  1  0  0  0  0
 23 30  1  0  0  0  0
 24 30  1  0  0  0  0
 25 34  1  0  0  0  0
 27 28  1  0  0  0  0
 32 34  2  0  0  0  0
 33 34  2  0  0  0  0
  1 35  1  0  0  0  0
  2 36  1  0  0  0  0
  3 37  1  0  0  0  0
  4 38  1  0  0  0  0
  5 39  1  0  0  0  0
  6 40  1  0  0  0  0
  7 41  1  0  0  0  0
  8 42  1  0  0  0  0
  9 43  1  0  0  0  0
 16 44  1  0  0  0  0
 17 45  1  0  0  0  0
 20 46  1  0  0  0  0
 20 47  1  0  0  0  0
 21 48  1  0  0  0  0
 21 49  1  0  0  0  0
 22 50  1  0  0  0  0
 22 51  1  0  0  0  0
 23 52  1  0  0  0  0
 23 53  1  0  0  0  0
 24 54  1  0  0  0  0
 24 55  1  0  0  0  0
 24 56  1  0  0  0  0
 25 57  1  0  0  0  0
 25 58  1  0  0  0  0
 25 59  1  0  0  0  0
M  END
> <SMILES>
CN1CCN(CC1)C(=O)c1cccc(c1)-c1ccc2ncc(n2n1)-c1ccc(cc1)S(=O)(=O)C

> <FORMATTED_ID>
H3D-000358

> <MOLFORMULA>
C25H25N5O3S

> <Exact Mass>
475.17

> <XLogP>
3.06

> <TPSA_NOPS>
96.3

> <s_m_source_file>
ligprep_h3d.sdf

> <i_m_source_file_index>
3184

> <i_lp_mmshare_version>
55123

> <i_f3d_flags>
0

> <s_epik_input>
W0NIM11OMVtDSDJdW0NIMl1OKFtDSDJdW0NIMl0xKUMoPU8pYzJbY0hdW2NIXVtjSF1jKFtjSF0yKS1jKFtjSF1bY0hdMylubihjMzQpYyhbY0hdbjQpLWM1W2NIXVtjSF1jKFtjSF1bY0hdNSlTKD1PKSg9TylbQ0gzXQ==

> <s_epik_cmdline>
J2VwaWtfcHl0aG9uJywgJy1waHQnLCAnMC41JywgJy1waCcsICc3LjUnLCAnLXRuJywgJzgnLCAnLW1hJywgJzUwMCcsICctaW1hZScsICc8aW5maWxlLm1hZT4nLCAnLW9tYWUnLCAnPG91dGZpbGUubWFlPic=

> <r_lp_tautomer_probability>
1

> <r_epik_Ionization_Penalty>
0.214779

> <r_epik_Ionization_Penalty_Charging>
0

> <r_epik_Ionization_Penalty_Neutral>
0.214779

> <r_epik_State_Penalty>
0.204792

> <r_epik_Charging_Adjusted_Penalty>
0.204792

> <i_epik_Tot_Q>
0

> <i_epik_Tot_abs_Q>
0

> <s_lp_Force_Field>
S-OPLS

> <r_lp_Energy>
55.9918

> <b_lp_Chiralities_Consistent>
1

> <s_lp_Variant>
ligprep_h3d.sdf:3184-1

> <ROCS_ShapeQuery>
_7L13

> <ROCS_TanimotoCombo>
0.837 

> <ROCS_ShapeTanimoto>
0.678 

> <ROCS_ColorTanimoto>
0.159 

> <ROCS_RefTversky>
0.786 

> <ROCS_RefColorTversky>
0.302 

> <ROCS_RefTverskyCombo>
1.088 

> <ROCS_FitTversky>
0.831 

> <ROCS_FitColorTversky>
0.252 

> <ROCS_FitTverskyCombo>
1.083 

> <ROCS_ColorScore>
-2.753

> <ROCS_Overlap>
1300.697

> <ROCS_Rank>
300                 

$$$$
ligprep_h3d.sdf:1049_445
  -OEChem-08212117123D

 58 63  0     1  0  0  0  0  0999 V2000
  -20.9093   -5.0483  -29.5237 C   0  0  0  0  0  0  0  0  0  0  0  0
  -21.7744   -4.3698  -30.3844 C   0  0  0  0  0  0  0  0  0  0  0  0
  -21.0111   -4.8141  -28.1307 C   0  0  0  0  0  0  0  0  0  0  0  0
  -21.9830   -3.9499  -27.5740 C   0  0  0  0  0  0  0  0  0  0  0  0
  -22.6954   -3.5031  -29.8389 C   0  0  0  0  0  0  0  0  0  0  0  0
  -22.8332   -3.2615  -28.4717 C   0  0  0  0  0  0  0  0  0  0  0  0
  -22.0139   -4.2862  -31.7686 C   0  0  0  0  0  0  0  0  0  0  0  0
  -18.9095   -3.5450  -26.2703 C   0  0  0  0  0  0  0  0  0  0  0  0
  -19.0071   -5.8292  -25.0791 C   0  0  0  0  0  0  0  0  0  0  0  0
  -16.8473   -4.8607  -25.8375 C   0  0  0  0  0  0  0  0  0  0  0  0
  -20.5486   -4.4885  -33.8165 C   0  0  0  0  0  0  0  0  0  0  0  0
  -20.0489   -5.5469  -27.2343 C   0  0  0  0  0  0  0  0  0  0  0  0
  -23.1030   -2.9033  -25.6161 C   0  0  0  0  0  0  0  0  0  0  0  0
  -21.3452   -6.4432  -32.8683 C   0  0  0  0  0  0  0  0  0  0  0  0
  -21.1083   -4.4023  -25.2472 C   0  0  2  0  0  0  0  0  0  0  0  0
  -23.4077   -3.2438  -24.1546 C   0  0  1  0  0  0  0  0  0  0  0  0
  -20.2419   -6.7551  -33.8548 C   0  0  1  0  0  0  0  0  0  0  0  0
  -21.0008   -3.4523  -24.0189 C   0  0  2  0  0  0  0  0  0  0  0  0
  -19.7543   -4.7812  -25.9203 C   0  0  0  0  0  0  0  0  0  0  0  0
  -24.2802   -4.4894  -24.0105 C   0  0  0  0  0  0  0  0  0  0  0  0
  -19.9798   -3.8410  -22.9563 C   0  0  0  0  0  0  0  0  0  0  0  0
  -20.6083   -7.8447  -34.8445 C   0  0  0  0  0  0  0  0  0  0  0  0
  -23.0023   -3.4355  -32.0614 N   0  0  0  0  0  0  0  0  0  0  0  0
  -17.5416   -3.7616  -26.3222 N   0  0  0  0  0  0  0  0  0  0  0  0
  -17.6275   -5.8237  -25.2135 N   0  0  0  0  0  0  0  0  0  0  0  0
  -22.0756   -3.7817  -26.1903 N   0  0  3  0  0  0  0  0  0  0  0  0
  -21.2974   -5.0098  -32.7651 N   0  0  0  0  0  0  0  0  0  0  0  0
  -19.3984   -2.4505  -26.5503 O   0  0  0  0  0  0  0  0  0  0  0  0
  -19.5868   -6.6775  -24.3997 O   0  0  0  0  0  0  0  0  0  0  0  0
  -15.6215   -4.9555  -25.9188 O   0  0  0  0  0  0  0  0  0  0  0  0
  -20.3553   -3.3220  -34.1290 O   0  0  0  0  0  0  0  0  0  0  0  0
  -23.4308   -2.9390  -30.8359 O   0  0  0  0  0  0  0  0  0  0  0  0
  -20.0215   -5.5229  -34.5550 O   0  0  0  0  0  0  0  0  0  0  0  0
  -22.2565   -3.3985  -23.3304 O   0  0  0  0  0  0  0  0  0  0  0  0
  -19.7578   -7.7387  -35.9733 O   0  0  0  0  0  0  0  0  0  0  0  0
  -23.7021   -1.7844  -28.1389 Cl  0  0  0  0  0  0  0  0  0  0  0  0
  -20.1654   -5.7356  -29.9165 H   0  0  0  0  0  0  0  0  0  0  0  0
  -20.4841   -6.5332  -27.0215 H   0  0  0  0  0  0  0  0  0  0  0  0
  -19.1101   -5.7280  -27.7754 H   0  0  0  0  0  0  0  0  0  0  0  0
  -24.0236   -3.0923  -26.2084 H   0  0  0  0  0  0  0  0  0  0  0  0
  -22.9902   -1.8178  -25.7296 H   0  0  0  0  0  0  0  0  0  0  0  0
  -22.3358   -6.7897  -33.1801 H   0  0  0  0  0  0  0  0  0  0  0  0
  -21.1140   -6.8544  -31.8785 H   0  0  0  0  0  0  0  0  0  0  0  0
  -21.5951   -5.3286  -24.9044 H   0  0  0  0  0  0  0  0  0  0  0  0
  -24.0255   -2.3879  -23.7097 H   0  0  0  0  0  0  0  0  0  0  0  0
  -19.3137   -7.0247  -33.3269 H   0  0  0  0  0  0  0  0  0  0  0  0
  -20.7563   -2.4230  -24.3400 H   0  0  0  0  0  0  0  0  0  0  0  0
  -23.7598   -5.3578  -24.4144 H   0  0  0  0  0  0  0  0  0  0  0  0
  -25.2159   -4.3539  -24.5529 H   0  0  0  0  0  0  0  0  0  0  0  0
  -24.5035   -4.6683  -22.9586 H   0  0  0  0  0  0  0  0  0  0  0  0
  -20.1764   -4.8534  -22.6034 H   0  0  0  0  0  0  0  0  0  0  0  0
  -20.0405   -3.1541  -22.1123 H   0  0  0  0  0  0  0  0  0  0  0  0
  -18.9738   -3.8009  -23.3739 H   0  0  0  0  0  0  0  0  0  0  0  0
  -21.6449   -7.7282  -35.1657 H   0  0  0  0  0  0  0  0  0  0  0  0
  -20.4762   -8.8275  -34.3884 H   0  0  0  0  0  0  0  0  0  0  0  0
  -16.9860   -3.0355  -26.7640 H   0  0  0  0  0  0  0  0  0  0  0  0
  -17.1275   -6.5826  -24.7595 H   0  0  0  0  0  0  0  0  0  0  0  0
  -20.0134   -8.4460  -36.5891 H   0  0  0  0  0  0  0  0  0  0  0  0
  1  2  2  0  0  0  0
  1  3  1  0  0  0  0
  2  5  1  0  0  0  0
  2  7  1  0  0  0  0
  3  4  2  0  0  0  0
  3 12  1  0  0  0  0
  4  6  1  0  0  0  0
  4 26  1  0  0  0  0
  5  6  2  0  0  0  0
  5 32  1  0  0  0  0
  6 36  1  0  0  0  0
  7 23  2  0  0  0  0
  7 27  1  0  0  0  0
  8 19  1  0  0  0  0
  8 24  1  0  0  0  0
  8 28  2  0  0  0  0
  9 19  1  0  0  0  0
  9 25  1  0  0  0  0
  9 29  2  0  0  0  0
 10 24  1  0  0  0  0
 10 25  1  0  0  0  0
 10 30  2  0  0  0  0
 11 27  1  0  0  0  0
 11 31  2  0  0  0  0
 11 33  1  0  0  0  0
 12 19  1  0  0  0  0
 13 16  1  0  0  0  0
 13 26  1  0  0  0  0
 14 17  1  0  0  0  0
 14 27  1  0  0  0  0
 15 18  1  0  0  0  0
 15 19  1  0  0  0  0
 15 26  1  0  0  0  0
 16 20  1  0  0  0  0
 16 34  1  0  0  0  0
 17 22  1  0  0  0  0
 17 33  1  0  0  0  0
 18 21  1  0  0  0  0
 18 34  1  0  0  0  0
 22 35  1  0  0  0  0
 23 32  1  0  0  0  0
  1 37  1  0  0  0  0
 12 38  1  0  0  0  0
 12 39  1  0  0  0  0
 13 40  1  0  0  0  0
 13 41  1  0  0  0  0
 14 42  1  0  0  0  0
 14 43  1  0  0  0  0
 15 44  1  0  0  0  0
 16 45  1  0  0  0  0
 17 46  1  0  0  0  0
 18 47  1  0  0  0  0
 20 48  1  0  0  0  0
 20 49  1  0  0  0  0
 20 50  1  0  0  0  0
 21 51  1  0  0  0  0
 21 52  1  0  0  0  0
 21 53  1  0  0  0  0
 22 54  1  0  0  0  0
 22 55  1  0  0  0  0
 24 56  1  0  0  0  0
 25 57  1  0  0  0  0
 35 58  1  0  0  0  0
M  END
> <SMILES>
C[C@@H]1CN2[C@H]([C@H](C)O1)C1(Cc3cc4c(noc4c(c32)Cl)N2C[C@@H](CO)OC2=O)C(=O)NC(=O)NC1=O

> <FORMATTED_ID>
H3D-006611

> <MOLFORMULA>
C22H22ClN5O8

> <Exact Mass>
519.12

> <XLogP>
0.02

> <TPSA_NOPS>
163.8

> <s_m_source_file>
ligprep_h3d.sdf

> <i_m_source_file_index>
1049

> <i_lp_mmshare_version>
55123

> <i_f3d_flags>
0

> <s_epik_input>
Tz1DMVtOSF1DKD1PKVtOSF1DKD1PKUMxMltDQEBIXTNOKFtDSDJdW0NAQEhdKFtDSDNdKU9bQ0BIXTNbQ0gzXSljNGMoW0NIMl0yKVtjSF1jNWMoYzRDbClvbmM1TjZbQ0gyXVtDQEBIXShbQ0gyXVtPSF0pT0M2PU8=

> <s_epik_cmdline>
J2VwaWtfcHl0aG9uJywgJy1waHQnLCAnMC41JywgJy1waCcsICc3LjUnLCAnLXRuJywgJzgnLCAnLW1hJywgJzUwMCcsICctaW1hZScsICc8aW5maWxlLm1hZT4nLCAnLW9tYWUnLCAnPG91dGZpbGUubWFlPic=

> <r_lp_tautomer_probability>
1

> <r_epik_Ionization_Penalty>
0.369126

> <r_epik_Ionization_Penalty_Charging>
0

> <r_epik_Ionization_Penalty_Neutral>
0.369126

> <r_epik_State_Penalty>
0.366447

> <r_epik_Charging_Adjusted_Penalty>
0.366447

> <i_epik_Tot_Q>
0

> <i_epik_Tot_abs_Q>
0

> <s_epik_Chemistry_Notes>
This compound has an ester and may undergo hydrolysis at high or low pH.

> <s_lp_Force_Field>
S-OPLS

> <r_lp_Energy>
44.1518

> <b_lp_Chiralities_Consistent>
1

> <s_lp_Variant>
ligprep_h3d.sdf:1049-1

> <ROCS_ShapeQuery>
_7L13

> <ROCS_TanimotoCombo>
0.759 

> <ROCS_ShapeTanimoto>
0.636 

> <ROCS_ColorTanimoto>
0.123 

> <ROCS_RefTversky>
0.786 

> <ROCS_RefColorTversky>
0.292 

> <ROCS_RefTverskyCombo>
1.078 

> <ROCS_FitTversky>
0.770 

> <ROCS_FitColorTversky>
0.174 

> <ROCS_FitTverskyCombo>
0.944 

> <ROCS_ColorScore>
-2.733

> <ROCS_Overlap>
1306.037

> <ROCS_Rank>
301                 

$$$$
ligprep_h3d.sdf:5450_839
  -OEChem-08212117123D

 64 68  0     0  0  0  0  0  0999 V2000
  -23.0068   -6.2702  -32.5822 C   0  0  0  0  0  0  0  0  0  0  0  0
  -22.8840   -5.2181  -31.6747 C   0  0  0  0  0  0  0  0  0  0  0  0
  -21.9617   -6.5603  -33.4593 C   0  0  0  0  0  0  0  0  0  0  0  0
  -18.4027   -4.0225  -26.1098 C   0  0  0  0  0  0  0  0  0  0  0  0
  -18.8512   -6.3485  -25.6939 C   0  0  0  0  0  0  0  0  0  0  0  0
  -23.7138   -3.6198  -27.7595 C   0  0  0  0  0  0  0  0  0  0  0  0
  -21.0540   -4.1193  -28.5365 C   0  0  0  0  0  0  0  0  0  0  0  0
  -20.6711   -4.7459  -32.5216 C   0  0  0  0  0  0  0  0  0  0  0  0
  -17.0574   -4.3070  -25.9394 C   0  0  0  0  0  0  0  0  0  0  0  0
  -17.4858   -6.5289  -25.5423 C   0  0  0  0  0  0  0  0  0  0  0  0
  -22.7810   -4.1066  -26.8517 C   0  0  0  0  0  0  0  0  0  0  0  0
  -19.3102   -5.0683  -25.9831 C   0  0  0  0  0  0  0  0  0  0  0  0
  -21.4493   -4.3424  -27.2234 C   0  0  0  0  0  0  0  0  0  0  0  0
  -21.7162   -4.4559  -31.6445 C   0  0  0  0  0  0  0  0  0  0  0  0
  -23.3087   -3.3844  -29.0718 C   0  0  0  0  0  0  0  0  0  0  0  0
  -21.9879   -3.6368  -29.4587 C   0  0  0  0  0  0  0  0  0  0  0  0
  -20.7939   -5.7981  -33.4290 C   0  0  0  0  0  0  0  0  0  0  0  0
  -23.0483   -3.1120  -24.5702 C   0  0  0  0  0  0  0  0  0  0  0  0
  -24.2149   -5.2862  -25.1160 C   0  0  0  0  0  0  0  0  0  0  0  0
  -21.6546   -5.2071  -25.1027 C   0  0  0  0  0  0  0  0  0  0  0  0
  -23.3235   -3.3444  -23.0880 C   0  0  0  0  0  0  0  0  0  0  0  0
  -24.4383   -5.5264  -23.6286 C   0  0  0  0  0  0  0  0  0  0  0  0
  -22.9734   -4.4189  -25.3876 C   0  0  0  0  0  0  0  0  0  0  0  0
  -24.9238   -4.3678  -21.4758 C   0  0  0  0  0  0  0  0  0  0  0  0
  -24.3233   -1.4914  -30.0929 C   0  0  0  0  0  0  0  0  0  0  0  0
  -19.8274   -5.1773  -35.9656 C   0  0  0  0  0  0  0  0  0  0  0  0
  -16.5738   -5.5377  -25.6579 N   0  0  0  0  0  0  0  0  0  0  0  0
  -20.6789   -4.8336  -26.1452 N   0  0  0  0  0  0  0  0  0  0  0  0
  -24.5569   -4.1966  -22.9245 N   0  3  0  0  0  0  0  0  0  0  0  0
  -18.2507   -5.6714  -33.9298 O   0  0  0  0  0  0  0  0  0  0  0  0
  -19.5853   -7.5580  -34.9324 O   0  0  0  0  0  0  0  0  0  0  0  0
  -21.5948   -3.4116  -30.7451 O   0  0  0  0  0  0  0  0  0  0  0  0
  -24.2123   -2.9080  -29.9740 O   0  0  0  0  0  0  0  0  0  0  0  0
  -19.4847   -6.1632  -34.5256 S   0  0  0  0  0  0  0  0  0  0  0  0
  -23.9162   -6.8634  -32.6059 H   0  0  0  0  0  0  0  0  0  0  0  0
  -23.7017   -4.9970  -30.9943 H   0  0  0  0  0  0  0  0  0  0  0  0
  -22.0672   -7.3829  -34.1614 H   0  0  0  0  0  0  0  0  0  0  0  0
  -18.7280   -3.0124  -26.3351 H   0  0  0  0  0  0  0  0  0  0  0  0
  -19.5320   -7.1866  -25.5884 H   0  0  0  0  0  0  0  0  0  0  0  0
  -24.7365   -3.4205  -27.4557 H   0  0  0  0  0  0  0  0  0  0  0  0
  -20.0310   -4.3099  -28.8481 H   0  0  0  0  0  0  0  0  0  0  0  0
  -19.7629   -4.1485  -32.4943 H   0  0  0  0  0  0  0  0  0  0  0  0
  -16.3092   -3.5262  -26.0284 H   0  0  0  0  0  0  0  0  0  0  0  0
  -17.0765   -7.5082  -25.3166 H   0  0  0  0  0  0  0  0  0  0  0  0
  -23.8434   -2.4693  -24.9733 H   0  0  0  0  0  0  0  0  0  0  0  0
  -22.1186   -2.5374  -24.6731 H   0  0  0  0  0  0  0  0  0  0  0  0
  -24.1323   -6.2518  -25.6311 H   0  0  0  0  0  0  0  0  0  0  0  0
  -25.1122   -4.8054  -25.5278 H   0  0  0  0  0  0  0  0  0  0  0  0
  -21.2502   -5.0015  -24.1056 H   0  0  0  0  0  0  0  0  0  0  0  0
  -21.8315   -6.2902  -25.1656 H   0  0  0  0  0  0  0  0  0  0  0  0
  -22.4967   -3.8560  -22.5848 H   0  0  0  0  0  0  0  0  0  0  0  0
  -23.5151   -2.3916  -22.5829 H   0  0  0  0  0  0  0  0  0  0  0  0
  -25.3760   -6.0679  -23.4658 H   0  0  0  0  0  0  0  0  0  0  0  0
  -23.6137   -6.0793  -23.1660 H   0  0  0  0  0  0  0  0  0  0  0  0
  -24.1096   -4.9055  -20.9864 H   0  0  0  0  0  0  0  0  0  0  0  0
  -25.0530   -3.3735  -21.0441 H   0  0  0  0  0  0  0  0  0  0  0  0
  -25.8533   -4.9387  -21.4317 H   0  0  0  0  0  0  0  0  0  0  0  0
  -25.0773   -1.2460  -30.8448 H   0  0  0  0  0  0  0  0  0  0  0  0
  -23.3561   -1.0721  -30.3810 H   0  0  0  0  0  0  0  0  0  0  0  0
  -24.6254   -1.0763  -29.1284 H   0  0  0  0  0  0  0  0  0  0  0  0
  -19.0414   -5.3568  -36.7009 H   0  0  0  0  0  0  0  0  0  0  0  0
  -20.7986   -5.4751  -36.3636 H   0  0  0  0  0  0  0  0  0  0  0  0
  -19.8410   -4.1275  -35.6689 H   0  0  0  0  0  0  0  0  0  0  0  0
  -25.3378   -3.6888  -23.3625 H   0  0  0  0  0  0  0  0  0  0  0  0
  1  2  1  0  0  0  0
  1  3  2  0  0  0  0
  2 14  2  0  0  0  0
  3 17  1  0  0  0  0
  4  9  1  0  0  0  0
  4 12  2  0  0  0  0
  5 10  2  0  0  0  0
  5 12  1  0  0  0  0
  6 11  1  0  0  0  0
  6 15  2  0  0  0  0
  7 13  1  0  0  0  0
  7 16  2  0  0  0  0
  8 14  1  0  0  0  0
  8 17  2  0  0  0  0
  9 27  2  0  0  0  0
 10 27  1  0  0  0  0
 11 13  2  0  0  0  0
 11 23  1  0  0  0  0
 12 28  1  0  0  0  0
 13 28  1  0  0  0  0
 14 32  1  0  0  0  0
 15 16  1  0  0  0  0
 15 33  1  0  0  0  0
 16 32  1  0  0  0  0
 17 34  1  0  0  0  0
 18 21  1  0  0  0  0
 18 23  1  0  0  0  0
 19 22  1  0  0  0  0
 19 23  1  0  0  0  0
 20 23  1  0  0  0  0
 20 28  1  0  0  0  0
 21 29  1  0  0  0  0
 22 29  1  0  0  0  0
 24 29  1  0  0  0  0
 25 33  1  0  0  0  0
 26 34  1  0  0  0  0
 30 34  2  0  0  0  0
 31 34  2  0  0  0  0
  1 35  1  0  0  0  0
  2 36  1  0  0  0  0
  3 37  1  0  0  0  0
  4 38  1  0  0  0  0
  5 39  1  0  0  0  0
  6 40  1  0  0  0  0
  7 41  1  0  0  0  0
  8 42  1  0  0  0  0
  9 43  1  0  0  0  0
 10 44  1  0  0  0  0
 18 45  1  0  0  0  0
 18 46  1  0  0  0  0
 19 47  1  0  0  0  0
 19 48  1  0  0  0  0
 20 49  1  0  0  0  0
 20 50  1  0  0  0  0
 21 51  1  0  0  0  0
 21 52  1  0  0  0  0
 22 53  1  0  0  0  0
 22 54  1  0  0  0  0
 24 55  1  0  0  0  0
 24 56  1  0  0  0  0
 24 57  1  0  0  0  0
 25 58  1  0  0  0  0
 25 59  1  0  0  0  0
 25 60  1  0  0  0  0
 26 61  1  0  0  0  0
 26 62  1  0  0  0  0
 26 63  1  0  0  0  0
 29 64  1  0  0  0  0
M  CHG  1  29   1
M  END
> <SMILES>
COc1cc2c(cc1Oc1cccc(c1)S(=O)(=O)C)N(CC12CCN(C)CC1)c1ccncc1

> <FORMATTED_ID>
H3D-016168

> <MOLFORMULA>
C26H29N3O4S

> <Exact Mass>
479.19

> <XLogP>
4.01

> <TPSA_NOPS>
80.3

> <s_m_source_file>
ligprep_h3d.sdf

> <i_m_source_file_index>
5450

> <i_lp_mmshare_version>
55123

> <i_f3d_flags>
0

> <s_epik_input>
Tz1TKD1PKShbQ0gzXSljKFtjSF0xKVtjSF1bY0hdW2NIXWMxT2MoYyhbY0hdMilPW0NIM10pW2NIXWMoYzJDMzRbQ0gyXVtDSDJdTihbQ0gzXSlbQ0gyXVtDSDJdNClOKFtDSDJdMyljNVtjSF1bY0hdbltjSF1bY0hdNQ==

> <s_epik_cmdline>
J2VwaWtfcHl0aG9uJywgJy1waHQnLCAnMC41JywgJy1waCcsICc3LjUnLCAnLXRuJywgJzgnLCAnLW1hJywgJzUwMCcsICctaW1hZScsICc8aW5maWxlLm1hZT4nLCAnLW9tYWUnLCAnPG91dGZpbGUubWFlPic=

> <r_lp_tautomer_probability>
1

> <r_epik_Ionization_Penalty>
0.130098

> <r_epik_Ionization_Penalty_Charging>
0.00689193

> <r_epik_Ionization_Penalty_Neutral>
0.123206

> <r_epik_State_Penalty>
0.112704

> <r_epik_Charging_Adjusted_Penalty>
0.119596

> <i_epik_Tot_Q>
1

> <i_epik_Tot_abs_Q>
1

> <s_lp_Force_Field>
S-OPLS

> <r_lp_Energy>
68.4087

> <b_lp_Chiralities_Consistent>
1

> <s_lp_Variant>
ligprep_h3d.sdf:5450-1

> <ROCS_ShapeQuery>
_7L13

> <ROCS_TanimotoCombo>
0.781 

> <ROCS_ShapeTanimoto>
0.683 

> <ROCS_ColorTanimoto>
0.098 

> <ROCS_RefTversky>
0.786 

> <ROCS_RefColorTversky>
0.205 

> <ROCS_RefTverskyCombo>
0.991 

> <ROCS_FitTversky>
0.840 

> <ROCS_FitColorTversky>
0.158 

> <ROCS_FitTverskyCombo>
0.998 

> <ROCS_ColorScore>
-1.877

> <ROCS_Overlap>
1299.775

> <ROCS_Rank>
302                 

$$$$
ligprep_h3d.sdf:2479_1963
  -OEChem-08212117123D

 62 66  0     0  0  0  0  0  0999 V2000
  -19.1807   -3.2129  -23.7379 C   0  0  0  0  0  0  0  0  0  0  0  0
  -25.7326   -4.4642  -23.4289 C   0  0  0  0  0  0  0  0  0  0  0  0
  -25.8233   -4.9454  -24.7309 C   0  0  0  0  0  0  0  0  0  0  0  0
  -18.9343   -5.5699  -34.8903 C   0  0  0  0  0  0  0  0  0  0  0  0
  -21.0216   -6.7681  -34.6805 C   0  0  0  0  0  0  0  0  0  0  0  0
  -24.5175   -3.9888  -22.9333 C   0  0  0  0  0  0  0  0  0  0  0  0
  -18.3759   -6.6593  -35.5587 C   0  0  0  0  0  0  0  0  0  0  0  0
  -20.4633   -7.8577  -35.3491 C   0  0  0  0  0  0  0  0  0  0  0  0
  -24.7103   -4.9537  -25.5809 C   0  0  0  0  0  0  0  0  0  0  0  0
  -20.2571   -5.6243  -34.4511 C   0  0  0  0  0  0  0  0  0  0  0  0
  -23.3891   -3.9953  -23.7736 C   0  0  0  0  0  0  0  0  0  0  0  0
  -23.4943   -4.4532  -25.0882 C   0  0  0  0  0  0  0  0  0  0  0  0
  -19.1405   -7.8032  -35.7882 C   0  0  0  0  0  0  0  0  0  0  0  0
  -21.4121   -3.8297  -24.5778 C   0  0  0  0  0  0  0  0  0  0  0  0
  -20.3828   -4.3484  -27.1174 C   0  0  0  0  0  0  0  0  0  0  0  0
  -20.0101   -3.6528  -24.8114 C   0  0  0  0  0  0  0  0  0  0  0  0
  -19.5026   -3.9140  -26.0374 C   0  0  0  0  0  0  0  0  0  0  0  0
  -21.7067   -4.5248  -26.9255 C   0  0  0  0  0  0  0  0  0  0  0  0
  -24.8944   -5.6176  -26.8762 C   0  0  0  0  0  0  0  0  0  0  0  0
  -23.6869   -4.6283  -30.0969 C   0  0  0  0  0  0  0  0  0  0  0  0
  -21.3124   -3.8295  -29.7892 C   0  0  0  0  0  0  0  0  0  0  0  0
  -23.7944   -3.7955  -31.3665 C   0  0  0  0  0  0  0  0  0  0  0  0
  -21.4342   -3.0019  -31.0609 C   0  0  0  0  0  0  0  0  0  0  0  0
  -22.6700   -4.0411  -29.1159 C   0  0  0  0  0  0  0  0  0  0  0  0
  -20.8584   -4.4514  -33.7321 C   0  0  0  0  0  0  0  0  0  0  0  0
  -21.9365   -4.8334  -32.7229 C   0  0  0  0  0  0  0  0  0  0  0  0
  -18.0546   -3.7842  -26.4295 C   0  0  0  0  0  0  0  0  0  0  0  0
  -18.5061   -2.8552  -22.8645 N   0  0  0  0  0  0  0  0  0  0  0  0
  -22.1103   -3.6144  -23.4832 N   0  0  0  0  0  0  0  0  0  0  0  0
  -22.2181   -4.2923  -25.6279 N   0  0  0  0  0  0  0  0  0  0  0  0
  -22.5378   -4.8830  -27.9508 N   0  0  0  0  0  0  0  0  0  0  0  0
  -22.4407   -3.6100  -32.0062 N   0  3  0  0  0  0  0  0  0  0  0  0
  -25.1891   -4.9020  -27.9084 O   0  5  0  0  0  0  0  0  0  0  0  0
  -24.7568   -6.8985  -26.9466 O   0  0  0  0  0  0  0  0  0  0  0  0
  -18.5959   -8.8658  -36.4416 O   0  0  0  0  0  0  0  0  0  0  0  0
  -17.8833   -4.1057  -27.7249 F   0  0  0  0  0  0  0  0  0  0  0  0
  -17.6239   -2.5220  -26.2493 F   0  0  0  0  0  0  0  0  0  0  0  0
  -17.2831   -4.6008  -25.6884 F   0  0  0  0  0  0  0  0  0  0  0  0
  -26.6091   -4.4727  -22.7870 H   0  0  0  0  0  0  0  0  0  0  0  0
  -26.7774   -5.3394  -25.0760 H   0  0  0  0  0  0  0  0  0  0  0  0
  -18.3313   -4.6828  -34.7158 H   0  0  0  0  0  0  0  0  0  0  0  0
  -22.0532   -6.8195  -34.3418 H   0  0  0  0  0  0  0  0  0  0  0  0
  -24.4459   -3.6314  -21.9106 H   0  0  0  0  0  0  0  0  0  0  0  0
  -17.3448   -6.6108  -35.8987 H   0  0  0  0  0  0  0  0  0  0  0  0
  -21.0641   -8.7456  -35.5250 H   0  0  0  0  0  0  0  0  0  0  0  0
  -19.9439   -4.4717  -28.1041 H   0  0  0  0  0  0  0  0  0  0  0  0
  -24.6660   -4.6635  -29.6110 H   0  0  0  0  0  0  0  0  0  0  0  0
  -23.4255   -5.6582  -30.3492 H   0  0  0  0  0  0  0  0  0  0  0  0
  -20.8434   -4.7907  -30.0153 H   0  0  0  0  0  0  0  0  0  0  0  0
  -20.6462   -3.3144  -29.0899 H   0  0  0  0  0  0  0  0  0  0  0  0
  -24.4543   -4.2642  -32.1144 H   0  0  0  0  0  0  0  0  0  0  0  0
  -24.1871   -2.7930  -31.1352 H   0  0  0  0  0  0  0  0  0  0  0  0
  -21.7829   -1.9844  -30.8226 H   0  0  0  0  0  0  0  0  0  0  0  0
  -20.4754   -2.9233  -31.5994 H   0  0  0  0  0  0  0  0  0  0  0  0
  -23.0452   -3.0604  -28.7659 H   0  0  0  0  0  0  0  0  0  0  0  0
  -20.0581   -3.9211  -33.1990 H   0  0  0  0  0  0  0  0  0  0  0  0
  -21.2622   -3.7285  -34.4529 H   0  0  0  0  0  0  0  0  0  0  0  0
  -21.5298   -5.4952  -31.9525 H   0  0  0  0  0  0  0  0  0  0  0  0
  -22.8044   -5.3099  -33.1886 H   0  0  0  0  0  0  0  0  0  0  0  0
  -23.0307   -5.7358  -27.8466 H   0  0  0  0  0  0  0  0  0  0  0  0
  -22.5858   -2.8854  -32.7683 H   0  0  0  0  0  0  0  0  0  0  0  0
  -19.2476   -9.5802  -36.5237 H   0  0  0  0  0  0  0  0  0  0  0  0
  1 16  1  0  0  0  0
  1 28  3  0  0  0  0
  2  3  2  0  0  0  0
  2  6  1  0  0  0  0
  3  9  1  0  0  0  0
  4  7  1  0  0  0  0
  4 10  2  0  0  0  0
  5  8  2  0  0  0  0
  5 10  1  0  0  0  0
  6 11  2  0  0  0  0
  7 13  2  0  0  0  0
  8 13  1  0  0  0  0
  9 12  2  0  0  0  0
  9 19  1  0  0  0  0
 10 25  1  0  0  0  0
 11 12  1  0  0  0  0
 11 29  1  0  0  0  0
 12 30  1  0  0  0  0
 13 35  1  0  0  0  0
 14 16  1  0  0  0  0
 14 29  2  0  0  0  0
 14 30  1  0  0  0  0
 15 17  1  0  0  0  0
 15 18  2  0  0  0  0
 16 17  2  0  0  0  0
 17 27  1  0  0  0  0
 18 30  1  0  0  0  0
 18 31  1  0  0  0  0
 19 33  1  0  0  0  0
 19 34  2  0  0  0  0
 20 22  1  0  0  0  0
 20 24  1  0  0  0  0
 21 23  1  0  0  0  0
 21 24  1  0  0  0  0
 22 32  1  0  0  0  0
 23 32  1  0  0  0  0
 24 31  1  0  0  0  0
 25 26  1  0  0  0  0
 26 32  1  0  0  0  0
 27 36  1  0  0  0  0
 27 37  1  0  0  0  0
 27 38  1  0  0  0  0
  2 39  1  0  0  0  0
  3 40  1  0  0  0  0
  4 41  1  0  0  0  0
  5 42  1  0  0  0  0
  6 43  1  0  0  0  0
  7 44  1  0  0  0  0
  8 45  1  0  0  0  0
 15 46  1  0  0  0  0
 20 47  1  0  0  0  0
 20 48  1  0  0  0  0
 21 49  1  0  0  0  0
 21 50  1  0  0  0  0
 22 51  1  0  0  0  0
 22 52  1  0  0  0  0
 23 53  1  0  0  0  0
 23 54  1  0  0  0  0
 24 55  1  0  0  0  0
 25 56  1  0  0  0  0
 25 57  1  0  0  0  0
 26 58  1  0  0  0  0
 26 59  1  0  0  0  0
 31 60  1  0  0  0  0
 32 61  1  0  0  0  0
 35 62  1  0  0  0  0
M  CHG  2  32   1  33  -1
M  END
> <SMILES>
OC(=O)c1cccc2nc3c(c(cc(n3c12)NC1CCN(CC1)CCc1ccc(cc1)O)C(F)(F)F)C#N

> <FORMATTED_ID>
H3D-005927

> <MOLFORMULA>
C27H24F3N5O3

> <Exact Mass>
523.18

> <XLogP>
5.28

> <TPSA_NOPS>
113.9

> <s_m_source_file>
ligprep_h3d.sdf

> <i_m_source_file_index>
2479

> <i_lp_mmshare_version>
55123

> <i_f3d_flags>
0

> <s_epik_input>
W2NIXTFbY0hdW2NIXWMoQyg9TylbT0hdKWMoYzEyKW4zYyhuMiljKEMjTiljKEMoRikoRilGKVtjSF1jM1tOSF1bQ0hdNFtDSDJdW0NIMl1OKFtDSDJdW0NIMl00KVtDSDJdW0NIMl1jNVtjSF1bY0hdYyhbT0hdKVtjSF1bY0hdNQ==

> <s_epik_cmdline>
J2VwaWtfcHl0aG9uJywgJy1waHQnLCAnMC41JywgJy1waCcsICc3LjUnLCAnLXRuJywgJzgnLCAnLW1hJywgJzUwMCcsICctaW1hZScsICc8aW5maWxlLm1hZT4nLCAnLW9tYWUnLCAnPG91dGZpbGUubWFlPic=

> <r_lp_tautomer_probability>
1

> <r_epik_Ionization_Penalty>
0.0105529

> <r_epik_Ionization_Penalty_Charging>
0.00508363

> <r_epik_Ionization_Penalty_Neutral>
0.00546923

> <r_epik_State_Penalty>
-0

> <r_epik_Charging_Adjusted_Penalty>
0.00508363

> <i_epik_Tot_Q>
0

> <i_epik_Tot_abs_Q>
2

> <s_lp_Force_Field>
S-OPLS

> <r_lp_Energy>
75.4847

> <b_lp_Chiralities_Consistent>
1

> <s_lp_Variant>
ligprep_h3d.sdf:2479-1

> <ROCS_ShapeQuery>
_7L13

> <ROCS_TanimotoCombo>
0.744 

> <ROCS_ShapeTanimoto>
0.617 

> <ROCS_ColorTanimoto>
0.127 

> <ROCS_RefTversky>
0.785 

> <ROCS_RefColorTversky>
0.292 

> <ROCS_RefTverskyCombo>
1.077 

> <ROCS_FitTversky>
0.742 

> <ROCS_FitColorTversky>
0.184 

> <ROCS_FitTverskyCombo>
0.926 

> <ROCS_ColorScore>
-2.712

> <ROCS_Overlap>
1308.389

> <ROCS_Rank>
303                 

$$$$
ligprep_h3d.sdf:5439_1749
  -OEChem-08212117123D

 68 73  0     0  0  0  0  0  0999 V2000
  -19.9180   -7.7154  -33.8412 C   0  0  0  0  0  0  0  0  0  0  0  0
  -19.4682   -5.3713  -34.2151 C   0  0  0  0  0  0  0  0  0  0  0  0
  -19.9288   -7.9331  -35.2189 C   0  0  0  0  0  0  0  0  0  0  0  0
  -19.4789   -5.5890  -35.5928 C   0  0  0  0  0  0  0  0  0  0  0  0
  -25.2354   -6.7483  -22.7491 C   0  0  0  0  0  0  0  0  0  0  0  0
  -24.5261   -3.3919  -23.8305 C   0  0  0  0  0  0  0  0  0  0  0  0
  -20.0436   -4.9036  -29.2147 C   0  0  0  0  0  0  0  0  0  0  0  0
  -22.6894   -3.9394  -29.1406 C   0  0  0  0  0  0  0  0  0  0  0  0
  -25.6817   -6.5502  -21.4567 C   0  0  0  0  0  0  0  0  0  0  0  0
  -25.4272   -4.1849  -21.5385 C   0  0  0  0  0  0  0  0  0  0  0  0
  -24.9690   -4.3251  -22.8478 C   0  0  0  0  0  0  0  0  0  0  0  0
  -20.6823   -4.6745  -28.0004 C   0  0  0  0  0  0  0  0  0  0  0  0
  -19.6877   -6.4345  -33.3393 C   0  0  0  0  0  0  0  0  0  0  0  0
  -24.8803   -5.5902  -23.4288 C   0  0  0  0  0  0  0  0  0  0  0  0
  -21.9945   -4.1961  -27.9661 C   0  0  0  0  0  0  0  0  0  0  0  0
  -20.7346   -4.6484  -30.3989 C   0  0  0  0  0  0  0  0  0  0  0  0
  -22.0492   -4.1694  -30.3613 C   0  0  0  0  0  0  0  0  0  0  0  0
  -19.7092   -6.8699  -36.0947 C   0  0  0  0  0  0  0  0  0  0  0  0
  -24.1858   -4.0966  -24.9618 C   0  0  0  0  0  0  0  0  0  0  0  0
  -23.6762   -3.5811  -26.2401 C   0  0  0  0  0  0  0  0  0  0  0  0
  -18.8945   -3.9800  -26.3637 C   0  0  0  0  0  0  0  0  0  0  0  0
  -19.7474   -6.3579  -26.3715 C   0  0  0  0  0  0  0  0  0  0  0  0
  -21.3280   -4.4512  -25.7328 C   0  0  0  0  0  0  0  0  0  0  0  0
  -18.2489   -4.2254  -25.0045 C   0  0  0  0  0  0  0  0  0  0  0  0
  -19.0967   -6.5863  -25.0117 C   0  0  0  0  0  0  0  0  0  0  0  0
  -20.1194   -4.8819  -26.6116 C   0  0  0  0  0  0  0  0  0  0  0  0
  -17.1404   -5.9607  -23.6004 C   0  0  0  0  0  0  0  0  0  0  0  0
  -22.6053   -2.6089  -32.0676 C   0  0  0  0  0  0  0  0  0  0  0  0
  -19.6752   -6.1997  -31.8573 C   0  0  0  0  0  0  0  0  0  0  0  0
  -24.4034   -5.4235  -24.7091 N   0  0  0  0  0  0  0  0  0  0  0  0
  -25.7559   -5.3259  -20.9273 N   0  3  0  0  0  0  0  0  0  0  0  0
  -22.4268   -4.0422  -26.6350 N   0  0  0  0  0  0  0  0  0  0  0  0
  -17.8939   -5.6860  -24.8730 N   0  3  0  0  0  0  0  0  0  0  0  0
  -24.4067   -2.7916  -26.8315 O   0  0  0  0  0  0  0  0  0  0  0  0
  -22.7216   -3.9205  -31.5217 O   0  0  0  0  0  0  0  0  0  0  0  0
  -20.1157   -4.8696  -31.5931 O   0  0  0  0  0  0  0  0  0  0  0  0
  -19.7169   -7.0794  -37.4177 F   0  0  0  0  0  0  0  0  0  0  0  0
  -20.0908   -8.5499  -33.1667 H   0  0  0  0  0  0  0  0  0  0  0  0
  -19.2877   -4.3699  -33.8332 H   0  0  0  0  0  0  0  0  0  0  0  0
  -20.1073   -8.9303  -35.6097 H   0  0  0  0  0  0  0  0  0  0  0  0
  -19.3085   -4.7615  -36.2750 H   0  0  0  0  0  0  0  0  0  0  0  0
  -25.1684   -7.7322  -23.1952 H   0  0  0  0  0  0  0  0  0  0  0  0
  -24.4652   -2.3177  -23.7153 H   0  0  0  0  0  0  0  0  0  0  0  0
  -19.0236   -5.2743  -29.2438 H   0  0  0  0  0  0  0  0  0  0  0  0
  -23.7072   -3.5684  -29.1442 H   0  0  0  0  0  0  0  0  0  0  0  0
  -25.9923   -7.3588  -20.8079 H   0  0  0  0  0  0  0  0  0  0  0  0
  -25.5403   -3.2656  -20.9814 H   0  0  0  0  0  0  0  0  0  0  0  0
  -19.1744   -2.9215  -26.4436 H   0  0  0  0  0  0  0  0  0  0  0  0
  -18.1381   -4.1491  -27.1421 H   0  0  0  0  0  0  0  0  0  0  0  0
  -19.0542   -6.7041  -27.1502 H   0  0  0  0  0  0  0  0  0  0  0  0
  -20.6355   -6.9974  -26.4579 H   0  0  0  0  0  0  0  0  0  0  0  0
  -21.7011   -5.2640  -25.0987 H   0  0  0  0  0  0  0  0  0  0  0  0
  -21.0955   -3.6012  -25.0807 H   0  0  0  0  0  0  0  0  0  0  0  0
  -17.3193   -3.6532  -24.9155 H   0  0  0  0  0  0  0  0  0  0  0  0
  -18.9128   -3.9673  -24.1727 H   0  0  0  0  0  0  0  0  0  0  0  0
  -19.7752   -6.3665  -24.1808 H   0  0  0  0  0  0  0  0  0  0  0  0
  -18.7439   -7.6196  -24.9269 H   0  0  0  0  0  0  0  0  0  0  0  0
  -17.8012   -5.7260  -22.7639 H   0  0  0  0  0  0  0  0  0  0  0  0
  -16.8631   -7.0165  -23.5975 H   0  0  0  0  0  0  0  0  0  0  0  0
  -16.2549   -5.3223  -23.5920 H   0  0  0  0  0  0  0  0  0  0  0  0
  -23.1879   -2.5443  -32.9898 H   0  0  0  0  0  0  0  0  0  0  0  0
  -21.5542   -2.3903  -32.2721 H   0  0  0  0  0  0  0  0  0  0  0  0
  -22.9915   -1.8871  -31.3440 H   0  0  0  0  0  0  0  0  0  0  0  0
  -20.3381   -6.9042  -31.3434 H   0  0  0  0  0  0  0  0  0  0  0  0
  -18.6660   -6.3310  -31.4525 H   0  0  0  0  0  0  0  0  0  0  0  0
  -24.2389   -6.1752  -25.3647 H   0  0  0  0  0  0  0  0  0  0  0  0
  -26.0948   -5.2556  -19.9672 H   0  0  0  0  0  0  0  0  0  0  0  0
  -17.2519   -5.9142  -25.6445 H   0  0  0  0  0  0  0  0  0  0  0  0
  1  3  1  0  0  0  0
  1 13  2  0  0  0  0
  2  4  2  0  0  0  0
  2 13  1  0  0  0  0
  3 18  2  0  0  0  0
  4 18  1  0  0  0  0
  5  9  1  0  0  0  0
  5 14  2  0  0  0  0
  6 11  1  0  0  0  0
  6 19  2  0  0  0  0
  7 12  1  0  0  0  0
  7 16  2  0  0  0  0
  8 15  1  0  0  0  0
  8 17  2  0  0  0  0
  9 31  2  0  0  0  0
 10 11  2  0  0  0  0
 10 31  1  0  0  0  0
 11 14  1  0  0  0  0
 12 15  2  0  0  0  0
 12 26  1  0  0  0  0
 13 29  1  0  0  0  0
 14 30  1  0  0  0  0
 15 32  1  0  0  0  0
 16 17  1  0  0  0  0
 16 36  1  0  0  0  0
 17 35  1  0  0  0  0
 18 37  1  0  0  0  0
 19 20  1  0  0  0  0
 19 30  1  0  0  0  0
 20 32  1  0  0  0  0
 20 34  2  0  0  0  0
 21 24  1  0  0  0  0
 21 26  1  0  0  0  0
 22 25  1  0  0  0  0
 22 26  1  0  0  0  0
 23 26  1  0  0  0  0
 23 32  1  0  0  0  0
 24 33  1  0  0  0  0
 25 33  1  0  0  0  0
 27 33  1  0  0  0  0
 28 35  1  0  0  0  0
 29 36  1  0  0  0  0
  1 38  1  0  0  0  0
  2 39  1  0  0  0  0
  3 40  1  0  0  0  0
  4 41  1  0  0  0  0
  5 42  1  0  0  0  0
  6 43  1  0  0  0  0
  7 44  1  0  0  0  0
  8 45  1  0  0  0  0
  9 46  1  0  0  0  0
 10 47  1  0  0  0  0
 21 48  1  0  0  0  0
 21 49  1  0  0  0  0
 22 50  1  0  0  0  0
 22 51  1  0  0  0  0
 23 52  1  0  0  0  0
 23 53  1  0  0  0  0
 24 54  1  0  0  0  0
 24 55  1  0  0  0  0
 25 56  1  0  0  0  0
 25 57  1  0  0  0  0
 27 58  1  0  0  0  0
 27 59  1  0  0  0  0
 27 60  1  0  0  0  0
 28 61  1  0  0  0  0
 28 62  1  0  0  0  0
 28 63  1  0  0  0  0
 29 64  1  0  0  0  0
 29 65  1  0  0  0  0
 30 66  1  0  0  0  0
 31 67  1  0  0  0  0
 33 68  1  0  0  0  0
M  CHG  2  31   1  33   1
M  END
> <SMILES>
COc1cc2c(cc1OCc1ccc(cc1)F)C1(CCN(C)CC1)CN2C(=O)c1cc2cnccc2[nH]1

> <FORMATTED_ID>
H3D-016045

> <MOLFORMULA>
C29H29FN4O3

> <Exact Mass>
500.22

> <XLogP>
5.29

> <TPSA_NOPS>
70.7

> <s_m_source_file>
ligprep_h3d.sdf

> <i_m_source_file_index>
5439

> <i_lp_mmshare_version>
55123

> <i_f3d_flags>
0

> <s_epik_input>
W2NIXTFbY0hdYyhGKVtjSF1bY0hdYzFbQ0gyXU9jKFtjSF0yKWMoT1tDSDNdKVtjSF1jKGMyQzM0W0NIMl1bQ0gyXU4oW0NIM10pW0NIMl1bQ0gyXTMpTihbQ0gyXTQpQyg9TyljKFtjSF01KVtuSF1jKGM1NilbY0hdW2NIXW5bY0hdNg==

> <s_epik_cmdline>
J2VwaWtfcHl0aG9uJywgJy1waHQnLCAnMC41JywgJy1waCcsICc3LjUnLCAnLXRuJywgJzgnLCAnLW1hJywgJzUwMCcsICctaW1hZScsICc8aW5maWxlLm1hZT4nLCAnLW9tYWUnLCAnPG91dGZpbGUubWFlPic=

> <r_lp_tautomer_probability>
1

> <r_epik_Ionization_Penalty>
0.25869

> <r_epik_Ionization_Penalty_Charging>
0.258661

> <r_epik_Ionization_Penalty_Neutral>
2.88343e-05

> <r_epik_State_Penalty>
0.237677

> <r_epik_Charging_Adjusted_Penalty>
0.496338

> <i_epik_Tot_Q>
2

> <i_epik_Tot_abs_Q>
2

> <s_lp_Force_Field>
S-OPLS

> <r_lp_Energy>
87.6007

> <b_lp_Chiralities_Consistent>
1

> <s_lp_Variant>
ligprep_h3d.sdf:5439-1

> <ROCS_ShapeQuery>
_7L13

> <ROCS_TanimotoCombo>
0.724 

> <ROCS_ShapeTanimoto>
0.628 

> <ROCS_ColorTanimoto>
0.096 

> <ROCS_RefTversky>
0.785 

> <ROCS_RefColorTversky>
0.217 

> <ROCS_RefTverskyCombo>
1.003 

> <ROCS_FitTversky>
0.759 

> <ROCS_FitColorTversky>
0.146 

> <ROCS_FitTverskyCombo>
0.904 

> <ROCS_ColorScore>
-2.011

> <ROCS_Overlap>
1306.372

> <ROCS_Rank>
304                 

$$$$
ligprep_h3d.sdf:3947_1317
  -OEChem-08212117123D

 58 62  0     0  0  0  0  0  0999 V2000
  -23.3354   -2.6452  -31.1015 C   0  0  0  0  0  0  0  0  0  0  0  0
  -23.3314   -4.1921  -23.3350 C   0  0  0  0  0  0  0  0  0  0  0  0
  -23.8985   -5.1040  -25.4992 C   0  0  0  0  0  0  0  0  0  0  0  0
  -22.6750   -2.8470  -29.8896 C   0  0  0  0  0  0  0  0  0  0  0  0
  -23.1832   -3.5637  -32.1402 C   0  0  0  0  0  0  0  0  0  0  0  0
  -24.6806   -4.1926  -22.9812 C   0  0  0  0  0  0  0  0  0  0  0  0
  -25.2477   -5.1046  -25.1454 C   0  0  0  0  0  0  0  0  0  0  0  0
  -21.7101   -4.8859  -30.7550 C   0  0  0  0  0  0  0  0  0  0  0  0
  -20.4197   -4.7899  -24.1837 C   0  0  0  0  0  0  0  0  0  0  0  0
  -22.9403   -4.6477  -24.5941 C   0  0  0  0  0  0  0  0  0  0  0  0
  -21.8623   -3.9673  -29.7164 C   0  0  0  0  0  0  0  0  0  0  0  0
  -22.3705   -4.6841  -31.9670 C   0  0  0  0  0  0  0  0  0  0  0  0
  -25.6388   -4.6490  -23.8864 C   0  0  0  0  0  0  0  0  0  0  0  0
  -21.5447   -4.6474  -24.9598 C   0  0  0  0  0  0  0  0  0  0  0  0
  -19.7017   -4.5472  -26.1813 C   0  0  0  0  0  0  0  0  0  0  0  0
  -19.0016   -4.4155  -27.4003 C   0  0  0  0  0  0  0  0  0  0  0  0
  -19.6805   -4.2347  -28.5396 C   0  0  0  0  0  0  0  0  0  0  0  0
  -21.1743   -4.1771  -28.4522 C   0  0  0  0  0  0  0  0  0  0  0  0
  -22.2108   -5.6502  -33.0609 C   0  0  0  0  0  0  0  0  0  0  0  0
  -20.0266   -7.0191  -35.5407 C   0  0  0  0  0  0  0  0  0  0  0  0
  -19.2514   -4.6990  -34.9338 C   0  0  0  0  0  0  0  0  0  0  0  0
  -20.5849   -7.1757  -34.1297 C   0  0  0  0  0  0  0  0  0  0  0  0
  -19.8190   -4.9043  -33.5332 C   0  0  0  0  0  0  0  0  0  0  0  0
  -18.8568   -6.0340  -35.5700 C   0  0  0  0  0  0  0  0  0  0  0  0
  -27.9204   -3.0545  -23.9606 C   0  0  0  0  0  0  0  0  0  0  0  0
  -19.2814   -4.7274  -24.9457 N   0  0  0  0  0  0  0  0  0  0  0  0
  -21.8506   -4.3113  -27.3459 N   0  0  0  0  0  0  0  0  0  0  0  0
  -21.0809   -4.4910  -26.2393 N   0  0  0  0  0  0  0  0  0  0  0  0
  -20.9263   -5.8699  -33.5634 N   0  0  0  0  0  0  0  0  0  0  0  0
  -23.2400   -6.1918  -33.4614 O   0  0  0  0  0  0  0  0  0  0  0  0
  -28.0016   -5.6595  -24.2474 O   0  0  0  0  0  0  0  0  0  0  0  0
  -27.4349   -4.6920  -21.9916 O   0  0  0  0  0  0  0  0  0  0  0  0
  -18.4657   -5.8267  -36.9219 O   0  0  0  0  0  0  0  0  0  0  0  0
  -27.3273   -4.6497  -23.4437 S   0  0  0  0  0  0  0  0  0  0  0  0
  -23.9681   -1.7725  -31.2365 H   0  0  0  0  0  0  0  0  0  0  0  0
  -22.5964   -3.8334  -22.6185 H   0  0  0  0  0  0  0  0  0  0  0  0
  -23.6094   -5.4625  -26.4844 H   0  0  0  0  0  0  0  0  0  0  0  0
  -22.8010   -2.1248  -29.0869 H   0  0  0  0  0  0  0  0  0  0  0  0
  -23.7027   -3.3965  -33.0804 H   0  0  0  0  0  0  0  0  0  0  0  0
  -24.9744   -3.8356  -21.9978 H   0  0  0  0  0  0  0  0  0  0  0  0
  -25.9860   -5.4622  -25.8582 H   0  0  0  0  0  0  0  0  0  0  0  0
  -21.0762   -5.7593  -30.6200 H   0  0  0  0  0  0  0  0  0  0  0  0
  -20.3667   -4.9350  -23.1139 H   0  0  0  0  0  0  0  0  0  0  0  0
  -17.9183   -4.4605  -27.4017 H   0  0  0  0  0  0  0  0  0  0  0  0
  -19.1871   -4.1273  -29.4974 H   0  0  0  0  0  0  0  0  0  0  0  0
  -19.6992   -7.9920  -35.9264 H   0  0  0  0  0  0  0  0  0  0  0  0
  -20.8176   -6.6801  -36.2226 H   0  0  0  0  0  0  0  0  0  0  0  0
  -19.9858   -4.1846  -35.5672 H   0  0  0  0  0  0  0  0  0  0  0  0
  -18.3778   -4.0378  -34.8919 H   0  0  0  0  0  0  0  0  0  0  0  0
  -21.4613   -7.8314  -34.1466 H   0  0  0  0  0  0  0  0  0  0  0  0
  -19.8409   -7.6365  -33.4692 H   0  0  0  0  0  0  0  0  0  0  0  0
  -19.0509   -5.3100  -32.8640 H   0  0  0  0  0  0  0  0  0  0  0  0
  -20.1337   -3.9423  -33.1214 H   0  0  0  0  0  0  0  0  0  0  0  0
  -18.0023   -6.4654  -35.0347 H   0  0  0  0  0  0  0  0  0  0  0  0
  -28.9807   -2.9843  -23.7124 H   0  0  0  0  0  0  0  0  0  0  0  0
  -27.3523   -2.2879  -23.4315 H   0  0  0  0  0  0  0  0  0  0  0  0
  -27.7731   -2.9649  -25.0378 H   0  0  0  0  0  0  0  0  0  0  0  0
  -17.7250   -5.1998  -36.9050 H   0  0  0  0  0  0  0  0  0  0  0  0
  1  4  1  0  0  0  0
  1  5  2  0  0  0  0
  2  6  1  0  0  0  0
  2 10  2  0  0  0  0
  3  7  2  0  0  0  0
  3 10  1  0  0  0  0
  4 11  2  0  0  0  0
  5 12  1  0  0  0  0
  6 13  2  0  0  0  0
  7 13  1  0  0  0  0
  8 11  1  0  0  0  0
  8 12  2  0  0  0  0
  9 14  2  0  0  0  0
  9 26  1  0  0  0  0
 10 14  1  0  0  0  0
 11 18  1  0  0  0  0
 12 19  1  0  0  0  0
 13 34  1  0  0  0  0
 14 28  1  0  0  0  0
 15 16  1  0  0  0  0
 15 26  2  0  0  0  0
 15 28  1  0  0  0  0
 16 17  2  0  0  0  0
 17 18  1  0  0  0  0
 18 27  2  0  0  0  0
 19 29  1  0  0  0  0
 19 30  2  0  0  0  0
 20 22  1  0  0  0  0
 20 24  1  0  0  0  0
 21 23  1  0  0  0  0
 21 24  1  0  0  0  0
 22 29  1  0  0  0  0
 23 29  1  0  0  0  0
 24 33  1  0  0  0  0
 25 34  1  0  0  0  0
 27 28  1  0  0  0  0
 31 34  2  0  0  0  0
 32 34  2  0  0  0  0
  1 35  1  0  0  0  0
  2 36  1  0  0  0  0
  3 37  1  0  0  0  0
  4 38  1  0  0  0  0
  5 39  1  0  0  0  0
  6 40  1  0  0  0  0
  7 41  1  0  0  0  0
  8 42  1  0  0  0  0
  9 43  1  0  0  0  0
 16 44  1  0  0  0  0
 17 45  1  0  0  0  0
 20 46  1  0  0  0  0
 20 47  1  0  0  0  0
 21 48  1  0  0  0  0
 21 49  1  0  0  0  0
 22 50  1  0  0  0  0
 22 51  1  0  0  0  0
 23 52  1  0  0  0  0
 23 53  1  0  0  0  0
 24 54  1  0  0  0  0
 25 55  1  0  0  0  0
 25 56  1  0  0  0  0
 25 57  1  0  0  0  0
 33 58  1  0  0  0  0
M  END
> <SMILES>
CS(=O)(=O)c1ccc(cc1)-c1cnc2ccc(nn12)-c1cccc(c1)C(=O)N1CCC(O)CC1

> <FORMATTED_ID>
H3D-002521

> <MOLFORMULA>
C25H24N4O4S

> <Exact Mass>
476.15

> <XLogP>
3.34

> <TPSA_NOPS>
113.3

> <s_m_source_file>
ligprep_h3d.sdf

> <i_m_source_file_index>
3947

> <i_lp_mmshare_version>
55123

> <i_f3d_flags>
0

> <s_epik_input>
W0NIM11TKD1PKSg9TyljMVtjSF1bY0hdYyhbY0hdW2NIXTEpLWMoW2NIXW4yKW4oYzIzKW5jKFtjSF1bY0hdMyktYzRbY0hdW2NIXVtjSF1jKFtjSF00KUMoPU8pTjVbQ0gyXVtDSDJdW0NIXShbT0hdKVtDSDJdW0NIMl01

> <s_epik_cmdline>
J2VwaWtfcHl0aG9uJywgJy1waHQnLCAnMC41JywgJy1waCcsICc3LjUnLCAnLXRuJywgJzgnLCAnLW1hJywgJzUwMCcsICctaW1hZScsICc8aW5maWxlLm1hZT4nLCAnLW9tYWUnLCAnPG91dGZpbGUubWFlPic=

> <r_lp_tautomer_probability>
1

> <r_epik_Ionization_Penalty>
0.000168891

> <r_epik_Ionization_Penalty_Charging>
0

> <r_epik_Ionization_Penalty_Neutral>
0.000168891

> <r_epik_State_Penalty>
-0

> <r_epik_Charging_Adjusted_Penalty>
0

> <i_epik_Tot_Q>
0

> <i_epik_Tot_abs_Q>
0

> <s_lp_Force_Field>
S-OPLS

> <r_lp_Energy>
35.6865

> <b_lp_Chiralities_Consistent>
1

> <s_lp_Variant>
ligprep_h3d.sdf:3947-1

> <ROCS_ShapeQuery>
_7L13

> <ROCS_TanimotoCombo>
0.828 

> <ROCS_ShapeTanimoto>
0.678 

> <ROCS_ColorTanimoto>
0.151 

> <ROCS_RefTversky>
0.785 

> <ROCS_RefColorTversky>
0.301 

> <ROCS_RefTverskyCombo>
1.086 

> <ROCS_FitTversky>
0.832 

> <ROCS_FitColorTversky>
0.232 

> <ROCS_FitTverskyCombo>
1.064 

> <ROCS_ColorScore>
-2.753

> <ROCS_Overlap>
1299.731

> <ROCS_Rank>
305                 

$$$$
ligprep_h3d.sdf:2556_755
  -OEChem-08212117123D

 75 78  0     1  0  0  0  0  0999 V2000
  -20.9389   -3.9180  -22.9696 C   0  0  0  0  0  0  0  0  0  0  0  0
  -23.8194   -5.6848  -23.9345 C   0  0  0  0  0  0  0  0  0  0  0  0
  -24.0273   -3.3446  -24.4976 C   0  0  0  0  0  0  0  0  0  0  0  0
  -25.0934   -5.6615  -23.3671 C   0  0  0  0  0  0  0  0  0  0  0  0
  -25.3014   -3.3212  -23.9303 C   0  0  0  0  0  0  0  0  0  0  0  0
  -16.0482   -4.1687  -25.3470 C   0  0  0  0  0  0  0  0  0  0  0  0
  -15.9144   -4.9593  -27.6292 C   0  0  0  0  0  0  0  0  0  0  0  0
  -23.2863   -4.5264  -24.4997 C   0  0  0  0  0  0  0  0  0  0  0  0
  -25.8344   -4.4797  -23.3650 C   0  0  0  0  0  0  0  0  0  0  0  0
  -17.4495   -4.2751  -25.4114 C   0  0  0  0  0  0  0  0  0  0  0  0
  -18.0691   -4.6987  -26.5884 C   0  0  0  0  0  0  0  0  0  0  0  0
  -15.2917   -4.5113  -26.4689 C   0  0  0  0  0  0  0  0  0  0  0  0
  -17.3085   -5.0659  -27.7102 C   0  0  0  0  0  0  0  0  0  0  0  0
  -19.5422   -4.2967  -24.9597 C   0  0  0  0  0  0  0  0  0  0  0  0
  -21.7790   -4.8778  -26.5182 C   0  0  0  0  0  0  0  0  0  0  0  0
  -20.8407   -4.2577  -24.3546 C   0  0  0  0  0  0  0  0  0  0  0  0
  -21.9340   -4.5509  -25.1019 C   0  0  0  0  0  0  0  0  0  0  0  0
  -20.5687   -4.9221  -27.1118 C   0  0  0  0  0  0  0  0  0  0  0  0
  -19.9461   -6.1542  -35.2507 C   0  0  0  0  0  0  0  0  0  0  0  0
  -23.9752   -3.3441  -32.6355 C   0  0  0  0  0  0  0  0  0  0  0  0
  -20.2365   -8.6418  -36.6208 C   0  0  0  0  0  0  0  0  0  0  0  0
  -19.0092   -7.5322  -38.5107 C   0  0  0  0  0  0  0  0  0  0  0  0
  -17.8760   -7.8336  -36.2896 C   0  0  0  0  0  0  0  0  0  0  0  0
  -21.5430   -4.9935  -29.3475 C   0  0  0  0  0  0  0  0  0  0  0  0
  -20.7713   -4.4044  -33.6829 C   0  0  0  0  0  0  0  0  0  0  0  0
  -22.7747   -3.3834  -31.7155 C   0  0  0  0  0  0  0  0  0  0  0  0
  -21.0499   -4.9192  -30.7803 C   0  0  0  0  0  0  0  0  0  0  0  0
  -21.8811   -5.2562  -33.0962 C   0  0  0  0  0  0  0  0  0  0  0  0
  -27.1975   -4.4561  -22.7603 C   0  0  0  0  0  0  0  0  0  0  0  0
  -19.2061   -7.5781  -36.9970 C   0  0  0  0  0  0  0  0  0  0  0  0
  -21.0188   -3.6422  -21.8456 N   0  0  0  0  0  0  0  0  0  0  0  0
  -18.3671   -4.0295  -24.4305 N   0  0  0  0  0  0  0  0  0  0  0  0
  -19.4354   -4.6590  -26.3096 N   0  0  0  0  0  0  0  0  0  0  0  0
  -20.4353   -5.1795  -28.4484 N   0  0  0  0  0  0  0  0  0  0  0  0
  -20.4076   -4.8941  -35.0313 N   0  0  0  0  0  0  0  0  0  0  0  0
  -22.2051   -4.7807  -31.7011 N   0  3  2  0  0  0  0  0  0  0  0  0
  -19.7696   -7.0316  -34.4119 O   0  0  0  0  0  0  0  0  0  0  0  0
  -19.7019   -6.2985  -36.5875 O   0  0  0  0  0  0  0  0  0  0  0  0
  -27.5901   -5.6599  -22.2478 F   0  0  0  0  0  0  0  0  0  0  0  0
  -27.3219   -3.5717  -21.7268 F   0  0  0  0  0  0  0  0  0  0  0  0
  -28.1645   -4.1079  -23.6584 F   0  0  0  0  0  0  0  0  0  0  0  0
  -13.5743   -4.3962  -26.4047 Cl  0  0  0  0  0  0  0  0  0  0  0  0
  -17.8593   -5.7967  -29.1676 Cl  0  0  0  0  0  0  0  0  0  0  0  0
  -23.2538   -6.6135  -23.9284 H   0  0  0  0  0  0  0  0  0  0  0  0
  -23.6255   -2.4336  -24.9347 H   0  0  0  0  0  0  0  0  0  0  0  0
  -25.5011   -6.5689  -22.9294 H   0  0  0  0  0  0  0  0  0  0  0  0
  -25.8719   -2.3962  -23.9328 H   0  0  0  0  0  0  0  0  0  0  0  0
  -15.5720   -3.8339  -24.4297 H   0  0  0  0  0  0  0  0  0  0  0  0
  -15.2965   -5.2474  -28.4794 H   0  0  0  0  0  0  0  0  0  0  0  0
  -22.6888   -5.0382  -27.0915 H   0  0  0  0  0  0  0  0  0  0  0  0
  -23.6762   -3.5945  -33.6580 H   0  0  0  0  0  0  0  0  0  0  0  0
  -24.7389   -4.0629  -32.3206 H   0  0  0  0  0  0  0  0  0  0  0  0
  -24.4304   -2.3483  -32.6502 H   0  0  0  0  0  0  0  0  0  0  0  0
  -20.3807   -8.6779  -35.5350 H   0  0  0  0  0  0  0  0  0  0  0  0
  -21.2051   -8.4505  -37.0940 H   0  0  0  0  0  0  0  0  0  0  0  0
  -19.8959   -9.6395  -36.9207 H   0  0  0  0  0  0  0  0  0  0  0  0
  -18.2707   -6.7703  -38.7852 H   0  0  0  0  0  0  0  0  0  0  0  0
  -19.9409   -7.2556  -39.0173 H   0  0  0  0  0  0  0  0  0  0  0  0
  -18.6741   -8.4974  -38.9040 H   0  0  0  0  0  0  0  0  0  0  0  0
  -17.1368   -7.0707  -36.5593 H   0  0  0  0  0  0  0  0  0  0  0  0
  -17.9916   -7.8332  -35.2009 H   0  0  0  0  0  0  0  0  0  0  0  0
  -17.4514   -8.7970  -36.5943 H   0  0  0  0  0  0  0  0  0  0  0  0
  -22.0799   -4.0823  -29.0634 H   0  0  0  0  0  0  0  0  0  0  0  0
  -22.2251   -5.8414  -29.2290 H   0  0  0  0  0  0  0  0  0  0  0  0
  -21.0724   -3.3542  -33.7573 H   0  0  0  0  0  0  0  0  0  0  0  0
  -19.8810   -4.4591  -33.0481 H   0  0  0  0  0  0  0  0  0  0  0  0
  -23.0462   -3.1365  -30.6854 H   0  0  0  0  0  0  0  0  0  0  0  0
  -21.9797   -2.7160  -32.0594 H   0  0  0  0  0  0  0  0  0  0  0  0
  -20.5276   -5.8356  -31.0693 H   0  0  0  0  0  0  0  0  0  0  0  0
  -20.4012   -4.0554  -30.9538 H   0  0  0  0  0  0  0  0  0  0  0  0
  -21.5748   -6.3023  -33.0069 H   0  0  0  0  0  0  0  0  0  0  0  0
  -22.8069   -5.1920  -33.6758 H   0  0  0  0  0  0  0  0  0  0  0  0
  -19.5470   -5.4961  -28.7607 H   0  0  0  0  0  0  0  0  0  0  0  0
  -20.5049   -4.2754  -35.8098 H   0  0  0  0  0  0  0  0  0  0  0  0
  -22.9626   -5.3948  -31.3559 H   0  0  0  0  0  0  0  0  0  0  0  0
  1 16  1  0  0  0  0
  1 31  3  0  0  0  0
  2  4  1  0  0  0  0
  2  8  2  0  0  0  0
  3  5  2  0  0  0  0
  3  8  1  0  0  0  0
  4  9  2  0  0  0  0
  5  9  1  0  0  0  0
  6 10  2  0  0  0  0
  6 12  1  0  0  0  0
  7 12  2  0  0  0  0
  7 13  1  0  0  0  0
  8 17  1  0  0  0  0
  9 29  1  0  0  0  0
 10 11  1  0  0  0  0
 10 32  1  0  0  0  0
 11 13  2  0  0  0  0
 11 33  1  0  0  0  0
 12 42  1  0  0  0  0
 13 43  1  0  0  0  0
 14 16  1  0  0  0  0
 14 32  2  0  0  0  0
 14 33  1  0  0  0  0
 15 17  1  0  0  0  0
 15 18  2  0  0  0  0
 16 17  2  0  0  0  0
 18 33  1  0  0  0  0
 18 34  1  0  0  0  0
 19 35  1  0  0  0  0
 19 37  2  0  0  0  0
 19 38  1  0  0  0  0
 20 26  1  0  0  0  0
 21 30  1  0  0  0  0
 22 30  1  0  0  0  0
 23 30  1  0  0  0  0
 24 27  1  0  0  0  0
 24 34  1  0  0  0  0
 25 28  1  0  0  0  0
 25 35  1  0  0  0  0
 26 36  1  0  0  0  0
 27 36  1  0  0  0  0
 28 36  1  0  0  0  0
 29 39  1  0  0  0  0
 29 40  1  0  0  0  0
 29 41  1  0  0  0  0
 30 38  1  0  0  0  0
  2 44  1  0  0  0  0
  3 45  1  0  0  0  0
  4 46  1  0  0  0  0
  5 47  1  0  0  0  0
  6 48  1  0  0  0  0
  7 49  1  0  0  0  0
 15 50  1  0  0  0  0
 20 51  1  0  0  0  0
 20 52  1  0  0  0  0
 20 53  1  0  0  0  0
 21 54  1  0  0  0  0
 21 55  1  0  0  0  0
 21 56  1  0  0  0  0
 22 57  1  0  0  0  0
 22 58  1  0  0  0  0
 22 59  1  0  0  0  0
 23 60  1  0  0  0  0
 23 61  1  0  0  0  0
 23 62  1  0  0  0  0
 24 63  1  0  0  0  0
 24 64  1  0  0  0  0
 25 65  1  0  0  0  0
 25 66  1  0  0  0  0
 26 67  1  0  0  0  0
 26 68  1  0  0  0  0
 27 69  1  0  0  0  0
 27 70  1  0  0  0  0
 28 71  1  0  0  0  0
 28 72  1  0  0  0  0
 34 73  1  0  0  0  0
 35 74  1  0  0  0  0
 36 75  1  0  0  0  0
M  CHG  1  36   1
M  END
> <SMILES>
CCN(CCNC(=O)OC(C)(C)C)CCNc1cc(c(c2nc3cc(cc(c3n12)Cl)Cl)C#N)-c1ccc(cc1)C(F)(F)F

> <FORMATTED_ID>
H3D-006779

> <MOLFORMULA>
C30H31Cl2F3N6O2

> <Exact Mass>
634.18

> <XLogP>
8.37

> <TPSA_NOPS>
94.7

> <s_m_source_file>
ligprep_h3d.sdf

> <i_m_source_file_index>
2556

> <i_lp_mmshare_version>
55123

> <i_f3d_flags>
0

> <s_epik_input>
W0NIM11DKFtDSDNdKShbQ0gzXSlPQyg9TylbTkhdW0NIMl1bQ0gyXU4oW0NIMl1bQ0gzXSlbQ0gyXVtDSDJdW05IXWMobihjMTIpYzNjKG4yKVtjSF1jKENsKVtjSF1jM0NsKVtjSF1jKGMxQyNOKS1jNFtjSF1bY0hdYyhDKEYpKEYpRilbY0hdW2NIXTQ=

> <s_epik_cmdline>
J2VwaWtfcHl0aG9uJywgJy1waHQnLCAnMC41JywgJy1waCcsICc3LjUnLCAnLXRuJywgJzgnLCAnLW1hJywgJzUwMCcsICctaW1hZScsICc8aW5maWxlLm1hZT4nLCAnLW9tYWUnLCAnPG91dGZpbGUubWFlPic=

> <r_epik_Ionization_Penalty>
0.0219059

> <r_epik_Ionization_Penalty_Charging>
0.0217123

> <r_epik_Ionization_Penalty_Neutral>
0.000193638

> <r_epik_State_Penalty>
0.0174774

> <r_epik_Charging_Adjusted_Penalty>
0.0391897

> <i_epik_Tot_Q>
1

> <i_epik_Tot_abs_Q>
1

> <s_epik_Chemistry_Notes>
This compound has an ester and may undergo hydrolysis at high or low pH.

> <s_lp_Force_Field>
S-OPLS

> <r_lp_Energy>
63.9617

> <b_lp_Chiralities_Consistent>
1

> <s_lp_Variant>
ligprep_h3d.sdf:2556-1

> <ROCS_ShapeQuery>
_7L13

> <ROCS_TanimotoCombo>
0.686 

> <ROCS_ShapeTanimoto>
0.575 

> <ROCS_ColorTanimoto>
0.111 

> <ROCS_RefTversky>
0.785 

> <ROCS_RefColorTversky>
0.230 

> <ROCS_RefTverskyCombo>
1.016 

> <ROCS_FitTversky>
0.682 

> <ROCS_FitColorTversky>
0.177 

> <ROCS_FitTverskyCombo>
0.859 

> <ROCS_ColorScore>
-2.108

> <ROCS_Overlap>
1314.868

> <ROCS_Rank>
306                 

$$$$
ligprep_h3d.sdf:3000_1928
  -OEChem-08212117123D

 64 69  0     0  0  0  0  0  0999 V2000
  -24.0429   -4.3644  -23.2639 C   0  0  0  0  0  0  0  0  0  0  0  0
  -25.2701   -4.9016  -23.7078 C   0  0  0  0  0  0  0  0  0  0  0  0
  -20.7834   -7.1141  -33.9543 C   0  0  0  0  0  0  0  0  0  0  0  0
  -20.5503   -5.6232  -26.3771 C   0  0  0  0  0  0  0  0  0  0  0  0
  -23.0488   -3.9495  -24.1616 C   0  0  0  0  0  0  0  0  0  0  0  0
  -25.5630   -5.0501  -25.0711 C   0  0  0  0  0  0  0  0  0  0  0  0
  -20.2009   -8.2582  -34.5036 C   0  0  0  0  0  0  0  0  0  0  0  0
  -19.5605   -6.5544  -26.0828 C   0  0  0  0  0  0  0  0  0  0  0  0
  -20.3940   -3.4219  -34.2071 C   0  0  0  0  0  0  0  0  0  0  0  0
  -18.7002   -6.8842  -35.8081 C   0  0  0  0  0  0  0  0  0  0  0  0
  -18.9524   -3.8947  -26.0372 C   0  0  0  0  0  0  0  0  0  0  0  0
  -19.3608   -3.3786  -35.1283 C   0  0  0  0  0  0  0  0  0  0  0  0
  -20.3309   -5.8382  -34.3256 C   0  0  0  0  0  0  0  0  0  0  0  0
  -20.2486   -4.2661  -26.3561 C   0  0  0  0  0  0  0  0  0  0  0  0
  -23.3536   -4.1028  -25.5089 C   0  0  0  0  0  0  0  0  0  0  0  0
  -24.5683   -4.6345  -25.9483 C   0  0  0  0  0  0  0  0  0  0  0  0
  -19.2788   -5.7341  -35.2622 C   0  0  0  0  0  0  0  0  0  0  0  0
  -20.8818   -4.6600  -33.8035 C   0  0  0  0  0  0  0  0  0  0  0  0
  -19.1626   -8.1432  -35.4275 C   0  0  0  0  0  0  0  0  0  0  0  0
  -18.2950   -6.0806  -25.7764 C   0  0  0  0  0  0  0  0  0  0  0  0
  -23.3398   -4.1318  -27.7323 C   0  0  0  0  0  0  0  0  0  0  0  0
  -21.1300   -3.8601  -30.7110 C   0  0  0  0  0  0  0  0  0  0  0  0
  -23.5680   -3.6583  -31.4079 C   0  0  0  0  0  0  0  0  0  0  0  0
  -21.7491   -4.6594  -29.5641 C   0  0  0  0  0  0  0  0  0  0  0  0
  -23.7063   -3.1387  -29.9784 C   0  0  0  0  0  0  0  0  0  0  0  0
  -22.1085   -3.6721  -31.8747 C   0  0  0  0  0  0  0  0  0  0  0  0
  -17.2083   -7.0517  -25.4558 C   0  0  0  0  0  0  0  0  0  0  0  0
  -21.2974   -3.2335  -26.6694 C   0  0  0  0  0  0  0  0  0  0  0  0
  -17.9643   -4.7701  -25.7457 N   0  0  0  0  0  0  0  0  0  0  0  0
  -22.6302   -3.8081  -26.6463 N   0  0  0  0  0  0  0  0  0  0  0  0
  -18.8424   -4.5117  -35.6203 N   0  3  0  0  0  0  0  0  0  0  0  0
  -24.5117   -4.6320  -27.3269 N   0  3  0  0  0  0  0  0  0  0  0  0
  -22.9462   -3.9825  -29.0468 N   0  0  0  0  0  0  0  0  0  0  0  0
  -21.9127   -4.6878  -32.8835 N   0  0  0  0  0  0  0  0  0  0  0  0
  -18.4508   -9.5592  -36.0991 Cl  0  0  0  0  0  0  0  0  0  0  0  0
  -23.8635   -4.2700  -22.1951 H   0  0  0  0  0  0  0  0  0  0  0  0
  -26.0095   -5.2084  -22.9713 H   0  0  0  0  0  0  0  0  0  0  0  0
  -21.5903   -7.2439  -33.2371 H   0  0  0  0  0  0  0  0  0  0  0  0
  -21.5527   -5.9635  -26.6217 H   0  0  0  0  0  0  0  0  0  0  0  0
  -22.1051   -3.5367  -23.8285 H   0  0  0  0  0  0  0  0  0  0  0  0
  -26.4998   -5.4611  -25.4249 H   0  0  0  0  0  0  0  0  0  0  0  0
  -20.5689   -9.2355  -34.2010 H   0  0  0  0  0  0  0  0  0  0  0  0
  -19.7828   -7.6159  -26.0958 H   0  0  0  0  0  0  0  0  0  0  0  0
  -20.8073   -2.4978  -33.8143 H   0  0  0  0  0  0  0  0  0  0  0  0
  -17.8906   -6.7910  -36.5284 H   0  0  0  0  0  0  0  0  0  0  0  0
  -18.6581   -2.8502  -26.0048 H   0  0  0  0  0  0  0  0  0  0  0  0
  -18.9230   -2.4606  -35.4958 H   0  0  0  0  0  0  0  0  0  0  0  0
  -20.8491   -2.8704  -30.3336 H   0  0  0  0  0  0  0  0  0  0  0  0
  -20.2085   -4.3424  -31.0510 H   0  0  0  0  0  0  0  0  0  0  0  0
  -24.0115   -4.6541  -31.4928 H   0  0  0  0  0  0  0  0  0  0  0  0
  -24.1350   -2.9995  -32.0742 H   0  0  0  0  0  0  0  0  0  0  0  0
  -22.0382   -5.6663  -29.8900 H   0  0  0  0  0  0  0  0  0  0  0  0
  -21.0206   -4.7724  -28.7515 H   0  0  0  0  0  0  0  0  0  0  0  0
  -23.3345   -2.1079  -29.9156 H   0  0  0  0  0  0  0  0  0  0  0  0
  -24.7551   -3.1306  -29.6552 H   0  0  0  0  0  0  0  0  0  0  0  0
  -21.8901   -2.6914  -32.3602 H   0  0  0  0  0  0  0  0  0  0  0  0
  -16.6744   -7.3412  -26.3689 H   0  0  0  0  0  0  0  0  0  0  0  0
  -16.4857   -6.6214  -24.7509 H   0  0  0  0  0  0  0  0  0  0  0  0
  -17.6110   -7.9578  -24.9853 H   0  0  0  0  0  0  0  0  0  0  0  0
  -21.2675   -2.4072  -25.9487 H   0  0  0  0  0  0  0  0  0  0  0  0
  -21.1329   -2.7893  -27.6587 H   0  0  0  0  0  0  0  0  0  0  0  0
  -18.0823   -4.4364  -36.2969 H   0  0  0  0  0  0  0  0  0  0  0  0
  -25.2501   -4.9615  -27.9429 H   0  0  0  0  0  0  0  0  0  0  0  0
  -22.5681   -5.4569  -32.9105 H   0  0  0  0  0  0  0  0  0  0  0  0
  1  2  2  0  0  0  0
  1  5  1  0  0  0  0
  2  6  1  0  0  0  0
  3  7  1  0  0  0  0
  3 13  2  0  0  0  0
  4  8  1  0  0  0  0
  4 14  2  0  0  0  0
  5 15  2  0  0  0  0
  6 16  2  0  0  0  0
  7 19  2  0  0  0  0
  8 20  2  0  0  0  0
  9 12  1  0  0  0  0
  9 18  2  0  0  0  0
 10 17  2  0  0  0  0
 10 19  1  0  0  0  0
 11 14  1  0  0  0  0
 11 29  2  0  0  0  0
 12 31  2  0  0  0  0
 13 17  1  0  0  0  0
 13 18  1  0  0  0  0
 14 28  1  0  0  0  0
 15 16  1  0  0  0  0
 15 30  1  0  0  0  0
 16 32  1  0  0  0  0
 17 31  1  0  0  0  0
 18 34  1  0  0  0  0
 19 35  1  0  0  0  0
 20 27  1  0  0  0  0
 20 29  1  0  0  0  0
 21 30  1  0  0  0  0
 21 32  2  0  0  0  0
 21 33  1  0  0  0  0
 22 24  1  0  0  0  0
 22 26  1  0  0  0  0
 23 25  1  0  0  0  0
 23 26  1  0  0  0  0
 24 33  1  0  0  0  0
 25 33  1  0  0  0  0
 26 34  1  0  0  0  0
 28 30  1  0  0  0  0
  1 36  1  0  0  0  0
  2 37  1  0  0  0  0
  3 38  1  0  0  0  0
  4 39  1  0  0  0  0
  5 40  1  0  0  0  0
  6 41  1  0  0  0  0
  7 42  1  0  0  0  0
  8 43  1  0  0  0  0
  9 44  1  0  0  0  0
 10 45  1  0  0  0  0
 11 46  1  0  0  0  0
 12 47  1  0  0  0  0
 22 48  1  0  0  0  0
 22 49  1  0  0  0  0
 23 50  1  0  0  0  0
 23 51  1  0  0  0  0
 24 52  1  0  0  0  0
 24 53  1  0  0  0  0
 25 54  1  0  0  0  0
 25 55  1  0  0  0  0
 26 56  1  0  0  0  0
 27 57  1  0  0  0  0
 27 58  1  0  0  0  0
 27 59  1  0  0  0  0
 28 60  1  0  0  0  0
 28 61  1  0  0  0  0
 31 62  1  0  0  0  0
 32 63  1  0  0  0  0
 34 64  1  0  0  0  0
M  CHG  2  31   1  32   1
M  END
> <SMILES>
Cc1ccc(cn1)Cn1c(nc2ccccc12)N1CCC(CC1)Nc1ccnc2cc(ccc12)Cl

> <FORMATTED_ID>
H3D-014801

> <MOLFORMULA>
C28H27ClN6

> <Exact Mass>
482.2

> <XLogP>
6.21

> <TPSA_NOPS>
58.9

> <s_m_source_file>
ligprep_h3d.sdf

> <i_m_source_file_index>
3000

> <i_lp_mmshare_version>
55123

> <i_f3d_flags>
0

> <s_epik_input>
W0NIM11jMVtjSF1bY0hdYyhbY0hdbjEpW0NIMl1uKGMoYzIzKVtjSF1bY0hdW2NIXVtjSF0zKWMobjIpTjRbQ0gyXVtDSDJdW0NIXShbQ0gyXVtDSDJdNClbTkhdYyhbY0hdW2NIXW41KWMoYzU2KVtjSF1bY0hdYyhDbClbY0hdNg==

> <s_epik_cmdline>
J2VwaWtfcHl0aG9uJywgJy1waHQnLCAnMC41JywgJy1waCcsICc3LjUnLCAnLXRuJywgJzgnLCAnLW1hJywgJzUwMCcsICctaW1hZScsICc8aW5maWxlLm1hZT4nLCAnLW9tYWUnLCAnPG91dGZpbGUubWFlPic=

> <r_epik_Ionization_Penalty>
0.185296

> <r_epik_Ionization_Penalty_Charging>
0.184031

> <r_epik_Ionization_Penalty_Neutral>
0.00126423

> <r_epik_State_Penalty>
0.165459

> <r_epik_Charging_Adjusted_Penalty>
0.34949

> <i_epik_Tot_Q>
2

> <i_epik_Tot_abs_Q>
2

> <s_lp_Force_Field>
S-OPLS

> <r_lp_Energy>
65.6311

> <b_lp_Chiralities_Consistent>
1

> <s_lp_Variant>
ligprep_h3d.sdf:3000-1

> <ROCS_ShapeQuery>
_7L13

> <ROCS_TanimotoCombo>
0.719 

> <ROCS_ShapeTanimoto>
0.654 

> <ROCS_ColorTanimoto>
0.065 

> <ROCS_RefTversky>
0.785 

> <ROCS_RefColorTversky>
0.141 

> <ROCS_RefTverskyCombo>
0.925 

> <ROCS_FitTversky>
0.796 

> <ROCS_FitColorTversky>
0.109 

> <ROCS_FitTverskyCombo>
0.905 

> <ROCS_ColorScore>
-1.289

> <ROCS_Overlap>
1301.889

> <ROCS_Rank>
307                 

$$$$
ligprep_h3d.sdf:1070_27
  -OEChem-08212117123D

 61 67  0     1  0  0  0  0  0999 V2000
  -21.0034   -5.1820  -29.4921 C   0  0  0  0  0  0  0  0  0  0  0  0
  -21.7523   -4.4051  -30.3785 C   0  0  0  0  0  0  0  0  0  0  0  0
  -21.1144   -4.9282  -28.1039 C   0  0  0  0  0  0  0  0  0  0  0  0
  -21.9847   -3.9444  -27.5775 C   0  0  0  0  0  0  0  0  0  0  0  0
  -22.5724   -3.4262  -29.8617 C   0  0  0  0  0  0  0  0  0  0  0  0
  -22.7173   -3.1607  -28.4998 C   0  0  0  0  0  0  0  0  0  0  0  0
  -21.9406   -4.3004  -31.7692 C   0  0  0  0  0  0  0  0  0  0  0  0
  -18.9010   -3.8750  -26.2312 C   0  0  0  0  0  0  0  0  0  0  0  0
  -19.2792   -6.0703  -24.9905 C   0  0  0  0  0  0  0  0  0  0  0  0
  -17.0820   -5.2521  -25.8121 C   0  0  0  0  0  0  0  0  0  0  0  0
  -20.8619   -6.4371  -32.5961 C   0  0  0  0  0  0  0  0  0  0  0  0
  -20.2821   -5.7691  -27.1733 C   0  0  0  0  0  0  0  0  0  0  0  0
  -19.8509   -5.9445  -36.0003 C   0  0  0  0  0  0  0  0  0  0  0  0
  -23.0352   -2.7732  -25.6520 C   0  0  0  0  0  0  0  0  0  0  0  0
  -18.5740   -5.1752  -35.7081 C   0  0  0  0  0  0  0  0  0  0  0  0
  -19.5439   -3.9098  -33.9771 C   0  0  0  0  0  0  0  0  0  0  0  0
  -20.8920   -4.6432  -34.0507 C   0  0  1  0  0  0  0  0  0  0  0  0
  -21.2157   -4.4694  -25.2285 C   0  0  2  0  0  0  0  0  0  0  0  0
  -20.7986   -5.9558  -34.8104 C   0  0  2  0  0  0  0  0  0  0  0  0
  -23.4129   -3.0753  -24.1989 C   0  0  1  0  0  0  0  0  0  0  0  0
  -21.0440   -3.5288  -23.9997 C   0  0  2  0  0  0  0  0  0  0  0  0
  -19.8992   -5.0038  -25.8825 C   0  0  2  0  0  0  0  0  0  0  0  0
  -24.4169   -4.2203  -24.0789 C   0  0  0  0  0  0  0  0  0  0  0  0
  -20.0938   -4.0078  -22.9094 C   0  0  0  0  0  0  0  0  0  0  0  0
  -22.8052   -3.3339  -32.0924 N   0  0  0  0  0  0  0  0  0  0  0  0
  -17.6448   -4.2471  -26.4842 N   0  5  0  0  0  0  0  0  0  0  0  0
  -17.8996   -6.0806  -25.0456 N   0  0  0  0  0  0  0  0  0  0  0  0
  -22.0926   -3.7581  -26.1972 N   0  0  3  0  0  0  0  0  0  0  0  0
  -21.2932   -5.1149  -32.7435 N   0  0  0  0  0  0  0  0  0  0  0  0
  -19.2898   -2.7163  -26.3765 O   0  0  0  0  0  0  0  0  0  0  0  0
  -19.9294   -6.8911  -24.3472 O   0  0  0  0  0  0  0  0  0  0  0  0
  -15.8722   -5.4917  -25.8545 O   0  0  0  0  0  0  0  0  0  0  0  0
  -20.8629   -7.1520  -31.6044 O   0  0  0  0  0  0  0  0  0  0  0  0
  -23.2024   -2.7802  -30.8808 O   0  0  0  0  0  0  0  0  0  0  0  0
  -20.3673   -6.8845  -33.8055 O   0  0  0  0  0  0  0  0  0  0  0  0
  -18.8974   -3.8660  -35.2465 O   0  0  0  0  0  0  0  0  0  0  0  0
  -22.3069   -3.3517  -23.3446 O   0  0  0  0  0  0  0  0  0  0  0  0
  -23.4652   -2.1104  -28.1409 F   0  0  0  0  0  0  0  0  0  0  0  0
  -20.3412   -5.9594  -29.8621 H   0  0  0  0  0  0  0  0  0  0  0  0
  -20.8608   -6.6717  -26.9340 H   0  0  0  0  0  0  0  0  0  0  0  0
  -19.3765   -6.1098  -27.6925 H   0  0  0  0  0  0  0  0  0  0  0  0
  -20.3628   -5.4529  -36.8367 H   0  0  0  0  0  0  0  0  0  0  0  0
  -19.6021   -6.9662  -36.3068 H   0  0  0  0  0  0  0  0  0  0  0  0
  -23.9460   -2.8032  -26.2850 H   0  0  0  0  0  0  0  0  0  0  0  0
  -22.7043   -1.7239  -25.6979 H   0  0  0  0  0  0  0  0  0  0  0  0
  -17.9490   -5.6905  -34.9692 H   0  0  0  0  0  0  0  0  0  0  0  0
  -17.9842   -5.0716  -36.6245 H   0  0  0  0  0  0  0  0  0  0  0  0
  -19.7027   -2.8779  -33.6453 H   0  0  0  0  0  0  0  0  0  0  0  0
  -18.8603   -4.3737  -33.2543 H   0  0  0  0  0  0  0  0  0  0  0  0
  -21.6574   -3.9947  -34.4927 H   0  0  0  0  0  0  0  0  0  0  0  0
  -21.8066   -5.3366  -24.8920 H   0  0  0  0  0  0  0  0  0  0  0  0
  -21.7886   -6.2914  -35.1468 H   0  0  0  0  0  0  0  0  0  0  0  0
  -23.9457   -2.1578  -23.7680 H   0  0  0  0  0  0  0  0  0  0  0  0
  -20.6954   -2.5285  -24.3142 H   0  0  0  0  0  0  0  0  0  0  0  0
  -23.9826   -5.1398  -24.4715 H   0  0  0  0  0  0  0  0  0  0  0  0
  -25.3191   -3.9860  -24.6440 H   0  0  0  0  0  0  0  0  0  0  0  0
  -24.6843   -4.3737  -23.0332 H   0  0  0  0  0  0  0  0  0  0  0  0
  -20.3937   -4.9963  -22.5610 H   0  0  0  0  0  0  0  0  0  0  0  0
  -20.1128   -3.3156  -22.0675 H   0  0  0  0  0  0  0  0  0  0  0  0
  -19.0771   -4.0634  -23.2986 H   0  0  0  0  0  0  0  0  0  0  0  0
  -17.4290   -6.7673  -24.4637 H   0  0  0  0  0  0  0  0  0  0  0  0
  1  2  2  0  0  0  0
  1  3  1  0  0  0  0
  2  5  1  0  0  0  0
  2  7  1  0  0  0  0
  3  4  2  0  0  0  0
  3 12  1  0  0  0  0
  4  6  1  0  0  0  0
  4 28  1  0  0  0  0
  5  6  2  0  0  0  0
  5 34  1  0  0  0  0
  6 38  1  0  0  0  0
  7 25  2  0  0  0  0
  7 29  1  0  0  0  0
  8 22  1  0  0  0  0
  8 26  1  0  0  0  0
  8 30  2  0  0  0  0
  9 22  1  0  0  0  0
  9 27  1  0  0  0  0
  9 31  2  0  0  0  0
 10 26  1  0  0  0  0
 10 27  1  0  0  0  0
 10 32  2  0  0  0  0
 11 29  1  0  0  0  0
 11 33  2  0  0  0  0
 11 35  1  0  0  0  0
 12 22  1  0  0  0  0
 13 15  1  0  0  0  0
 13 19  1  0  0  0  0
 14 20  1  0  0  0  0
 14 28  1  0  0  0  0
 15 36  1  0  0  0  0
 16 17  1  0  0  0  0
 16 36  1  0  0  0  0
 17 19  1  0  0  0  0
 17 29  1  0  0  0  0
 18 21  1  0  0  0  0
 18 22  1  0  0  0  0
 18 28  1  0  0  0  0
 19 35  1  0  0  0  0
 20 23  1  0  0  0  0
 20 37  1  0  0  0  0
 21 24  1  0  0  0  0
 21 37  1  0  0  0  0
 25 34  1  0  0  0  0
  1 39  1  0  0  0  0
 12 40  1  0  0  0  0
 12 41  1  0  0  0  0
 13 42  1  0  0  0  0
 13 43  1  0  0  0  0
 14 44  1  0  0  0  0
 14 45  1  0  0  0  0
 15 46  1  0  0  0  0
 15 47  1  0  0  0  0
 16 48  1  0  0  0  0
 16 49  1  0  0  0  0
 17 50  1  0  0  0  0
 18 51  1  0  0  0  0
 19 52  1  0  0  0  0
 20 53  1  0  0  0  0
 21 54  1  0  0  0  0
 23 55  1  0  0  0  0
 23 56  1  0  0  0  0
 23 57  1  0  0  0  0
 24 58  1  0  0  0  0
 24 59  1  0  0  0  0
 24 60  1  0  0  0  0
 27 61  1  0  0  0  0
M  CHG  1  26  -1
M  END
> <SMILES>
C[C@@H]1CN2[C@H]([C@H](C)O1)C1(Cc3cc4c(noc4c(c32)F)N2[C@H]3COCC[C@H]3OC2=O)C(=O)NC(=O)NC1=O

> <FORMATTED_ID>
H3D-006632

> <MOLFORMULA>
C24H24FN5O8

> <Exact Mass>
529.16

> <XLogP>
0.34

> <TPSA_NOPS>
152.8

> <s_m_source_file>
ligprep_h3d.sdf

> <i_m_source_file_index>
1070

> <i_lp_mmshare_version>
55123

> <i_f3d_flags>
0

> <s_epik_input>
Tz1DMVtOSF1DKD1PKVtOSF1DKD1PKUMxMltDQEBIXTNOKFtDSDJdW0NAQEhdKFtDSDNdKU9bQ0BIXTNbQ0gzXSljNGMoW0NIMl0yKVtjSF1jNWMoYzRGKW9uYzVONkMoPU8pT1tDQEBIXShbQ0BASF02NylbQ0gyXVtDSDJdT1tDSDJdNw==

> <s_epik_cmdline>
J2VwaWtfcHl0aG9uJywgJy1waHQnLCAnMC41JywgJy1waCcsICc3LjUnLCAnLXRuJywgJzgnLCAnLW1hJywgJzUwMCcsICctaW1hZScsICc8aW5maWxlLm1hZT4nLCAnLW9tYWUnLCAnPG91dGZpbGUubWFlPic=

> <r_lp_tautomer_probability>
1

> <r_epik_Ionization_Penalty>
0.455388

> <r_epik_Ionization_Penalty_Charging>
0.455373

> <r_epik_Ionization_Penalty_Neutral>
1.46169e-05

> <r_epik_State_Penalty>
0.458483

> <r_epik_Charging_Adjusted_Penalty>
0.913857

> <i_epik_Tot_Q>
-1

> <i_epik_Tot_abs_Q>
1

> <s_epik_Chemistry_Notes>
This compound has an ester and may undergo hydrolysis at high or low pH.

> <s_lp_Force_Field>
S-OPLS

> <r_lp_Energy>
49.948

> <b_lp_Chiralities_Consistent>
1

> <s_lp_Variant>
ligprep_h3d.sdf:1070-2

> <ROCS_ShapeQuery>
_7L13

> <ROCS_TanimotoCombo>
0.720 

> <ROCS_ShapeTanimoto>
0.601 

> <ROCS_ColorTanimoto>
0.119 

> <ROCS_RefTversky>
0.784 

> <ROCS_RefColorTversky>
0.295 

> <ROCS_RefTverskyCombo>
1.079 

> <ROCS_FitTversky>
0.720 

> <ROCS_FitColorTversky>
0.166 

> <ROCS_FitTverskyCombo>
0.886 

> <ROCS_ColorScore>
-2.775

> <ROCS_Overlap>
1308.937

> <ROCS_Rank>
308                 

$$$$
ligprep_h3d.sdf:1070_27
  -OEChem-08212117123D

 62 68  0     1  0  0  0  0  0999 V2000
  -20.9876   -5.1689  -29.4979 C   0  0  0  0  0  0  0  0  0  0  0  0
  -21.7447   -4.3985  -30.3827 C   0  0  0  0  0  0  0  0  0  0  0  0
  -21.0999   -4.9192  -28.1083 C   0  0  0  0  0  0  0  0  0  0  0  0
  -21.9804   -3.9464  -27.5794 C   0  0  0  0  0  0  0  0  0  0  0  0
  -22.5742   -3.4292  -29.8634 C   0  0  0  0  0  0  0  0  0  0  0  0
  -22.7206   -3.1681  -28.5008 C   0  0  0  0  0  0  0  0  0  0  0  0
  -21.9349   -4.2932  -31.7730 C   0  0  0  0  0  0  0  0  0  0  0  0
  -18.9177   -3.8937  -26.1914 C   0  0  0  0  0  0  0  0  0  0  0  0
  -19.3109   -6.1469  -25.0018 C   0  0  0  0  0  0  0  0  0  0  0  0
  -17.0337   -5.4369  -25.7008 C   0  0  0  0  0  0  0  0  0  0  0  0
  -20.8338   -6.4169  -32.6042 C   0  0  0  0  0  0  0  0  0  0  0  0
  -20.2536   -5.7546  -27.1852 C   0  0  0  0  0  0  0  0  0  0  0  0
  -19.8298   -5.9074  -36.0080 C   0  0  0  0  0  0  0  0  0  0  0  0
  -23.0253   -2.7701  -25.6540 C   0  0  0  0  0  0  0  0  0  0  0  0
  -18.5611   -5.1251  -35.7150 C   0  0  0  0  0  0  0  0  0  0  0  0
  -19.5436   -3.8732  -33.9813 C   0  0  0  0  0  0  0  0  0  0  0  0
  -20.8838   -4.6208  -34.0556 C   0  0  1  0  0  0  0  0  0  0  0  0
  -21.2279   -4.4877  -25.2289 C   0  0  2  0  0  0  0  0  0  0  0  0
  -20.7768   -5.9310  -34.8176 C   0  0  2  0  0  0  0  0  0  0  0  0
  -23.4073   -3.0675  -24.2013 C   0  0  1  0  0  0  0  0  0  0  0  0
  -21.0452   -3.5517  -23.9988 C   0  0  2  0  0  0  0  0  0  0  0  0
  -19.9087   -5.0229  -25.8640 C   0  0  0  0  0  0  0  0  0  0  0  0
  -24.4213   -4.2035  -24.0804 C   0  0  0  0  0  0  0  0  0  0  0  0
  -20.1054   -4.0515  -22.9081 C   0  0  0  0  0  0  0  0  0  0  0  0
  -22.8101   -3.3353  -32.0937 N   0  0  0  0  0  0  0  0  0  0  0  0
  -17.5830   -4.2669  -26.2053 N   0  0  0  0  0  0  0  0  0  0  0  0
  -17.9367   -6.3010  -25.0980 N   0  0  0  0  0  0  0  0  0  0  0  0
  -22.0909   -3.7633  -26.1989 N   0  0  3  0  0  0  0  0  0  0  0  0
  -21.2793   -5.0990  -32.7490 N   0  0  0  0  0  0  0  0  0  0  0  0
  -19.2690   -2.7513  -26.4855 O   0  0  0  0  0  0  0  0  0  0  0  0
  -20.0030   -6.9199  -24.3381 O   0  0  0  0  0  0  0  0  0  0  0  0
  -15.8253   -5.6728  -25.7481 O   0  0  0  0  0  0  0  0  0  0  0  0
  -20.8268   -7.1335  -31.6137 O   0  0  0  0  0  0  0  0  0  0  0  0
  -23.2119   -2.7879  -30.8808 O   0  0  0  0  0  0  0  0  0  0  0  0
  -20.3351   -6.8568  -33.8146 O   0  0  0  0  0  0  0  0  0  0  0  0
  -18.8982   -3.8203  -35.2510 O   0  0  0  0  0  0  0  0  0  0  0  0
  -22.3047   -3.3508  -23.3454 O   0  0  0  0  0  0  0  0  0  0  0  0
  -23.4785   -2.1247  -28.1431 F   0  0  0  0  0  0  0  0  0  0  0  0
  -20.3179   -5.9392  -29.8697 H   0  0  0  0  0  0  0  0  0  0  0  0
  -20.8051   -6.6835  -26.9838 H   0  0  0  0  0  0  0  0  0  0  0  0
  -19.3276   -6.0444  -27.7004 H   0  0  0  0  0  0  0  0  0  0  0  0
  -20.3474   -5.4198  -36.8432 H   0  0  0  0  0  0  0  0  0  0  0  0
  -19.5704   -6.9259  -36.3164 H   0  0  0  0  0  0  0  0  0  0  0  0
  -23.9357   -2.7931  -26.2883 H   0  0  0  0  0  0  0  0  0  0  0  0
  -22.6878   -1.7231  -25.6990 H   0  0  0  0  0  0  0  0  0  0  0  0
  -17.9303   -5.6350  -34.9773 H   0  0  0  0  0  0  0  0  0  0  0  0
  -17.9729   -5.0136  -36.6315 H   0  0  0  0  0  0  0  0  0  0  0  0
  -19.7132   -2.8436  -33.6476 H   0  0  0  0  0  0  0  0  0  0  0  0
  -18.8547   -4.3311  -33.2597 H   0  0  0  0  0  0  0  0  0  0  0  0
  -21.6563   -3.9797  -34.4961 H   0  0  0  0  0  0  0  0  0  0  0  0
  -21.8284   -5.3499  -24.8994 H   0  0  0  0  0  0  0  0  0  0  0  0
  -21.7633   -6.2765  -35.1541 H   0  0  0  0  0  0  0  0  0  0  0  0
  -23.9327   -2.1442  -23.7727 H   0  0  0  0  0  0  0  0  0  0  0  0
  -20.6744   -2.5589  -24.3140 H   0  0  0  0  0  0  0  0  0  0  0  0
  -23.9945   -5.1275  -24.4707 H   0  0  0  0  0  0  0  0  0  0  0  0
  -25.3207   -3.9625  -24.6473 H   0  0  0  0  0  0  0  0  0  0  0  0
  -24.6915   -4.3527  -23.0349 H   0  0  0  0  0  0  0  0  0  0  0  0
  -20.4273   -5.0329  -22.5596 H   0  0  0  0  0  0  0  0  0  0  0  0
  -20.1091   -3.3587  -22.0667 H   0  0  0  0  0  0  0  0  0  0  0  0
  -19.0904   -4.1298  -23.2978 H   0  0  0  0  0  0  0  0  0  0  0  0
  -16.9353   -3.6114  -26.6320 H   0  0  0  0  0  0  0  0  0  0  0  0
  -17.5399   -7.1108  -24.6301 H   0  0  0  0  0  0  0  0  0  0  0  0
  1  2  2  0  0  0  0
  1  3  1  0  0  0  0
  2  5  1  0  0  0  0
  2  7  1  0  0  0  0
  3  4  2  0  0  0  0
  3 12  1  0  0  0  0
  4  6  1  0  0  0  0
  4 28  1  0  0  0  0
  5  6  2  0  0  0  0
  5 34  1  0  0  0  0
  6 38  1  0  0  0  0
  7 25  2  0  0  0  0
  7 29  1  0  0  0  0
  8 22  1  0  0  0  0
  8 26  1  0  0  0  0
  8 30  2  0  0  0  0
  9 22  1  0  0  0  0
  9 27  1  0  0  0  0
  9 31  2  0  0  0  0
 10 26  1  0  0  0  0
 10 27  1  0  0  0  0
 10 32  2  0  0  0  0
 11 29  1  0  0  0  0
 11 33  2  0  0  0  0
 11 35  1  0  0  0  0
 12 22  1  0  0  0  0
 13 15  1  0  0  0  0
 13 19  1  0  0  0  0
 14 20  1  0  0  0  0
 14 28  1  0  0  0  0
 15 36  1  0  0  0  0
 16 17  1  0  0  0  0
 16 36  1  0  0  0  0
 17 19  1  0  0  0  0
 17 29  1  0  0  0  0
 18 21  1  0  0  0  0
 18 22  1  0  0  0  0
 18 28  1  0  0  0  0
 19 35  1  0  0  0  0
 20 23  1  0  0  0  0
 20 37  1  0  0  0  0
 21 24  1  0  0  0  0
 21 37  1  0  0  0  0
 25 34  1  0  0  0  0
  1 39  1  0  0  0  0
 12 40  1  0  0  0  0
 12 41  1  0  0  0  0
 13 42  1  0  0  0  0
 13 43  1  0  0  0  0
 14 44  1  0  0  0  0
 14 45  1  0  0  0  0
 15 46  1  0  0  0  0
 15 47  1  0  0  0  0
 16 48  1  0  0  0  0
 16 49  1  0  0  0  0
 17 50  1  0  0  0  0
 18 51  1  0  0  0  0
 19 52  1  0  0  0  0
 20 53  1  0  0  0  0
 21 54  1  0  0  0  0
 23 55  1  0  0  0  0
 23 56  1  0  0  0  0
 23 57  1  0  0  0  0
 24 58  1  0  0  0  0
 24 59  1  0  0  0  0
 24 60  1  0  0  0  0
 26 61  1  0  0  0  0
 27 62  1  0  0  0  0
M  END
> <SMILES>
C[C@@H]1CN2[C@H]([C@H](C)O1)C1(Cc3cc4c(noc4c(c32)F)N2[C@H]3COCC[C@H]3OC2=O)C(=O)NC(=O)NC1=O

> <FORMATTED_ID>
H3D-006632

> <MOLFORMULA>
C24H24FN5O8

> <Exact Mass>
529.16

> <XLogP>
0.34

> <TPSA_NOPS>
152.8

> <s_m_source_file>
ligprep_h3d.sdf

> <i_m_source_file_index>
1070

> <i_lp_mmshare_version>
55123

> <i_f3d_flags>
0

> <s_epik_input>
Tz1DMVtOSF1DKD1PKVtOSF1DKD1PKUMxMltDQEBIXTNOKFtDSDJdW0NAQEhdKFtDSDNdKU9bQ0BIXTNbQ0gzXSljNGMoW0NIMl0yKVtjSF1jNWMoYzRGKW9uYzVONkMoPU8pT1tDQEBIXShbQ0BASF02NylbQ0gyXVtDSDJdT1tDSDJdNw==

> <s_epik_cmdline>
J2VwaWtfcHl0aG9uJywgJy1waHQnLCAnMC41JywgJy1waCcsICc3LjUnLCAnLXRuJywgJzgnLCAnLW1hJywgJzUwMCcsICctaW1hZScsICc8aW5maWxlLm1hZT4nLCAnLW9tYWUnLCAnPG91dGZpbGUubWFlPic=

> <r_lp_tautomer_probability>
1

> <r_epik_Ionization_Penalty>
0.369125

> <r_epik_Ionization_Penalty_Charging>
0

> <r_epik_Ionization_Penalty_Neutral>
0.369125

> <r_epik_State_Penalty>
0.366447

> <r_epik_Charging_Adjusted_Penalty>
0.366447

> <i_epik_Tot_Q>
0

> <i_epik_Tot_abs_Q>
0

> <s_epik_Chemistry_Notes>
This compound has an ester and may undergo hydrolysis at high or low pH.

> <s_lp_Force_Field>
S-OPLS

> <r_lp_Energy>
34.7282

> <b_lp_Chiralities_Consistent>
1

> <s_lp_Variant>
ligprep_h3d.sdf:1070-1

> <ROCS_ShapeQuery>
_7L13

> <ROCS_TanimotoCombo>
0.727 

> <ROCS_ShapeTanimoto>
0.602 

> <ROCS_ColorTanimoto>
0.124 

> <ROCS_RefTversky>
0.784 

> <ROCS_RefColorTversky>
0.296 

> <ROCS_RefTverskyCombo>
1.081 

> <ROCS_FitTversky>
0.722 

> <ROCS_FitColorTversky>
0.176 

> <ROCS_FitTverskyCombo>
0.898 

> <ROCS_ColorScore>
-2.772

> <ROCS_Overlap>
1308.573

> <ROCS_Rank>
309                 

$$$$
ligprep_h3d.sdf:1282_745
  -OEChem-08212117123D

 72 76  0     1  0  0  0  0  0999 V2000
  -19.5853   -4.3285  -32.0462 C   0  0  0  0  0  0  0  0  0  0  0  0
  -20.3756   -6.6003  -31.8201 C   0  0  0  0  0  0  0  0  0  0  0  0
  -18.9820   -4.6591  -33.2596 C   0  0  0  0  0  0  0  0  0  0  0  0
  -19.7723   -6.9310  -33.0335 C   0  0  0  0  0  0  0  0  0  0  0  0
  -16.6693   -5.3820  -26.1444 C   0  0  0  0  0  0  0  0  0  0  0  0
  -22.8355   -4.1631  -28.8406 C   0  0  0  0  0  0  0  0  0  0  0  0
  -20.7928   -4.5147  -25.2387 C   0  0  0  0  0  0  0  0  0  0  0  0
  -17.2664   -6.6516  -26.0278 C   0  0  0  0  0  0  0  0  0  0  0  0
  -20.8322   -4.7409  -27.6454 C   0  0  0  0  0  0  0  0  0  0  0  0
  -20.2820   -5.2991  -31.3264 C   0  0  0  0  0  0  0  0  0  0  0  0
  -20.9104   -4.9546  -30.0619 C   0  0  0  0  0  0  0  0  0  0  0  0
  -19.0756   -5.9603  -33.7533 C   0  0  0  0  0  0  0  0  0  0  0  0
  -22.2222   -4.4971  -30.0507 C   0  0  0  0  0  0  0  0  0  0  0  0
  -20.2151   -5.0769  -28.8623 C   0  0  0  0  0  0  0  0  0  0  0  0
  -22.1639   -4.2758  -27.6264 C   0  0  0  0  0  0  0  0  0  0  0  0
  -20.1556   -4.8543  -26.4234 C   0  0  0  0  0  0  0  0  0  0  0  0
  -22.0966   -4.0694  -25.3203 C   0  0  0  0  0  0  0  0  0  0  0  0
  -17.7253   -4.5202  -26.3138 C   0  0  0  0  0  0  0  0  0  0  0  0
  -19.3852   -8.0755  -36.5881 C   0  0  0  0  0  0  0  0  0  0  0  0
  -22.8221   -3.6988  -24.1174 C   0  0  0  0  0  0  0  0  0  0  0  0
  -21.3728   -6.9217  -37.2068 C   0  0  0  0  0  0  0  0  0  0  0  0
  -20.3988   -5.9396  -36.5865 C   0  0  0  0  0  0  0  0  0  0  0  0
  -20.4826   -8.0834  -37.6354 C   0  0  2  0  0  0  0  0  0  0  0  0
  -23.0143   -4.3458  -31.3105 C   0  0  0  0  0  0  0  0  0  0  0  0
  -18.8008   -5.5778  -28.9529 C   0  0  0  0  0  0  0  0  0  0  0  0
  -17.7493   -3.0551  -26.4922 C   0  0  0  0  0  0  0  0  0  0  0  0
  -25.6802   -4.3020  -20.7021 C   0  0  0  0  0  0  0  0  0  0  0  0
  -18.4304   -6.3139  -35.0506 C   0  0  0  0  0  0  0  0  0  0  0  0
  -25.0722   -3.5382  -23.0209 C   0  0  0  0  0  0  0  0  0  0  0  0
  -25.2135   -4.7360  -22.0851 C   0  0  2  0  0  0  0  0  0  0  0  0
  -18.5984   -6.6049  -26.1156 N   0  0  0  0  0  0  0  0  0  0  0  0
  -22.7848   -3.9454  -26.4783 N   0  0  0  0  0  0  0  0  0  0  0  0
  -18.8470   -5.2956  -26.2890 N   0  0  0  0  0  0  0  0  0  0  0  0
  -19.3834   -6.8002  -36.0242 N   0  0  0  0  0  0  0  0  0  0  0  0
  -24.2107   -3.8803  -24.1297 N   0  0  0  0  0  0  0  0  0  0  0  0
  -18.6542   -9.0193  -36.3286 O   0  0  0  0  0  0  0  0  0  0  0  0
  -22.2209   -3.2231  -23.1370 O   0  0  0  0  0  0  0  0  0  0  0  0
  -21.1986   -9.2916  -37.6487 O   0  0  0  0  0  0  0  0  0  0  0  0
  -26.1802   -5.6306  -22.6326 O   0  0  0  0  0  0  0  0  0  0  0  0
  -19.5029   -3.3099  -31.6743 H   0  0  0  0  0  0  0  0  0  0  0  0
  -20.9157   -7.3679  -31.2709 H   0  0  0  0  0  0  0  0  0  0  0  0
  -18.4403   -3.8968  -33.8131 H   0  0  0  0  0  0  0  0  0  0  0  0
  -19.8507   -7.9472  -33.4110 H   0  0  0  0  0  0  0  0  0  0  0  0
  -15.6196   -5.1294  -26.1097 H   0  0  0  0  0  0  0  0  0  0  0  0
  -23.8647   -3.8058  -28.8468 H   0  0  0  0  0  0  0  0  0  0  0  0
  -20.2913   -4.5933  -24.2780 H   0  0  0  0  0  0  0  0  0  0  0  0
  -16.7863   -7.6086  -25.8824 H   0  0  0  0  0  0  0  0  0  0  0  0
  -22.1158   -7.2525  -36.4703 H   0  0  0  0  0  0  0  0  0  0  0  0
  -21.9190   -6.4917  -38.0520 H   0  0  0  0  0  0  0  0  0  0  0  0
  -19.9308   -5.2943  -37.3363 H   0  0  0  0  0  0  0  0  0  0  0  0
  -20.8667   -5.3330  -35.8066 H   0  0  0  0  0  0  0  0  0  0  0  0
  -20.0375   -7.8987  -38.6194 H   0  0  0  0  0  0  0  0  0  0  0  0
  -22.8770   -3.3410  -31.7243 H   0  0  0  0  0  0  0  0  0  0  0  0
  -22.7038   -5.0809  -32.0619 H   0  0  0  0  0  0  0  0  0  0  0  0
  -24.0828   -4.5070  -31.1258 H   0  0  0  0  0  0  0  0  0  0  0  0
  -18.7888   -6.6681  -28.8788 H   0  0  0  0  0  0  0  0  0  0  0  0
  -18.3446   -5.2789  -29.9007 H   0  0  0  0  0  0  0  0  0  0  0  0
  -18.1897   -5.1581  -28.1489 H   0  0  0  0  0  0  0  0  0  0  0  0
  -17.6928   -2.7839  -27.5591 H   0  0  0  0  0  0  0  0  0  0  0  0
  -18.6675   -2.6031  -26.0797 H   0  0  0  0  0  0  0  0  0  0  0  0
  -16.9082   -2.5616  -25.9758 H   0  0  0  0  0  0  0  0  0  0  0  0
  -26.6298   -3.7607  -20.7542 H   0  0  0  0  0  0  0  0  0  0  0  0
  -25.8033   -5.1667  -20.0405 H   0  0  0  0  0  0  0  0  0  0  0  0
  -24.9348   -3.6508  -20.2328 H   0  0  0  0  0  0  0  0  0  0  0  0
  -17.9236   -5.4438  -35.4910 H   0  0  0  0  0  0  0  0  0  0  0  0
  -17.6672   -7.0937  -34.9217 H   0  0  0  0  0  0  0  0  0  0  0  0
  -26.0479   -3.2368  -23.4170 H   0  0  0  0  0  0  0  0  0  0  0  0
  -24.6372   -2.6836  -22.4925 H   0  0  0  0  0  0  0  0  0  0  0  0
  -24.2624   -5.2748  -22.0037 H   0  0  0  0  0  0  0  0  0  0  0  0
  -24.6591   -4.2127  -24.9772 H   0  0  0  0  0  0  0  0  0  0  0  0
  -21.8823   -9.2240  -38.3417 H   0  0  0  0  0  0  0  0  0  0  0  0
  -26.2322   -6.3846  -22.0255 H   0  0  0  0  0  0  0  0  0  0  0  0
  1  3  1  0  0  0  0
  1 10  2  0  0  0  0
  2  4  2  0  0  0  0
  2 10  1  0  0  0  0
  3 12  2  0  0  0  0
  4 12  1  0  0  0  0
  5  8  1  0  0  0  0
  5 18  2  0  0  0  0
  6 13  2  0  0  0  0
  6 15  1  0  0  0  0
  7 16  1  0  0  0  0
  7 17  2  0  0  0  0
  8 31  2  0  0  0  0
  9 14  1  0  0  0  0
  9 15  1  0  0  0  0
  9 16  2  0  0  0  0
 10 11  1  0  0  0  0
 11 13  1  0  0  0  0
 11 14  2  0  0  0  0
 12 28  1  0  0  0  0
 13 24  1  0  0  0  0
 14 25  1  0  0  0  0
 15 32  2  0  0  0  0
 16 33  1  0  0  0  0
 17 20  1  0  0  0  0
 17 32  1  0  0  0  0
 18 26  1  0  0  0  0
 18 33  1  0  0  0  0
 19 23  1  0  0  0  0
 19 34  1  0  0  0  0
 19 36  2  0  0  0  0
 20 35  1  0  0  0  0
 20 37  2  0  0  0  0
 21 22  1  0  0  0  0
 21 23  1  0  0  0  0
 22 34  1  0  0  0  0
 23 38  1  0  0  0  0
 27 30  1  0  0  0  0
 28 34  1  0  0  0  0
 29 30  1  0  0  0  0
 29 35  1  0  0  0  0
 30 39  1  0  0  0  0
 31 33  1  0  0  0  0
  1 40  1  0  0  0  0
  2 41  1  0  0  0  0
  3 42  1  0  0  0  0
  4 43  1  0  0  0  0
  5 44  1  0  0  0  0
  6 45  1  0  0  0  0
  7 46  1  0  0  0  0
  8 47  1  0  0  0  0
 21 48  1  0  0  0  0
 21 49  1  0  0  0  0
 22 50  1  0  0  0  0
 22 51  1  0  0  0  0
 23 52  1  0  0  0  0
 24 53  1  0  0  0  0
 24 54  1  0  0  0  0
 24 55  1  0  0  0  0
 25 56  1  0  0  0  0
 25 57  1  0  0  0  0
 25 58  1  0  0  0  0
 26 59  1  0  0  0  0
 26 60  1  0  0  0  0
 26 61  1  0  0  0  0
 27 62  1  0  0  0  0
 27 63  1  0  0  0  0
 27 64  1  0  0  0  0
 28 65  1  0  0  0  0
 28 66  1  0  0  0  0
 29 67  1  0  0  0  0
 29 68  1  0  0  0  0
 30 69  1  0  0  0  0
 35 70  1  0  0  0  0
 38 71  1  0  0  0  0
 39 72  1  0  0  0  0
M  END
> <SMILES>
C[C@@H](O)CNC(=O)c1cc(c2c(c(c(cc2n1)C)-c1ccc(cc1)CN1CC[C@H](O)C1=O)C)-n1nccc1C

> <FORMATTED_ID>
H3D-008605

> <MOLFORMULA>
C30H33N5O4

> <Exact Mass>
527.25

> <XLogP>
3.2

> <TPSA_NOPS>
120.6

> <s_m_source_file>
ligprep_h3d.sdf

> <i_m_source_file_index>
1282

> <i_lp_mmshare_version>
55123

> <i_f3d_flags>
0

> <s_epik_input>
W0NIM11jMVtjSF1bY0hdbm4xLWMyW2NIXWMoQyg9TylbTkhdW0NIMl1bQ0BASF0oW0NIM10pW09IXSluYyhjMjMpW2NIXWMoW0NIM10pYyhjM1tDSDNdKS1jNFtjSF1bY0hdYyhbY0hdW2NIXTQpW0NIMl1ONVtDSDJdW0NIMl1bQ0BIXShbT0hdKUM1PU8=

> <s_epik_cmdline>
J2VwaWtfcHl0aG9uJywgJy1waHQnLCAnMC41JywgJy1waCcsICc3LjUnLCAnLXRuJywgJzgnLCAnLW1hJywgJzUwMCcsICctaW1hZScsICc8aW5maWxlLm1hZT4nLCAnLW9tYWUnLCAnPG91dGZpbGUubWFlPic=

> <r_lp_tautomer_probability>
1

> <r_epik_Ionization_Penalty>
0.000260424

> <r_epik_Ionization_Penalty_Charging>
0

> <r_epik_Ionization_Penalty_Neutral>
0.000260424

> <r_epik_State_Penalty>
-0

> <r_epik_Charging_Adjusted_Penalty>
0

> <i_epik_Tot_Q>
0

> <i_epik_Tot_abs_Q>
0

> <s_lp_Force_Field>
S-OPLS

> <r_lp_Energy>
43.9454

> <b_lp_Chiralities_Consistent>
1

> <s_lp_Variant>
ligprep_h3d.sdf:1282-1

> <ROCS_ShapeQuery>
_7L13

> <ROCS_TanimotoCombo>
0.713 

> <ROCS_ShapeTanimoto>
0.605 

> <ROCS_ColorTanimoto>
0.107 

> <ROCS_RefTversky>
0.784 

> <ROCS_RefColorTversky>
0.241 

> <ROCS_RefTverskyCombo>
1.025 

> <ROCS_FitTversky>
0.727 

> <ROCS_FitColorTversky>
0.162 

> <ROCS_FitTverskyCombo>
0.889 

> <ROCS_ColorScore>
-2.231

> <ROCS_Overlap>
1307.853

> <ROCS_Rank>
310                 

$$$$
ligprep_h3d.sdf:993_853
  -OEChem-08212117123D

 57 62  0     1  0  0  0  0  0999 V2000
  -20.9864   -5.1416  -29.5076 C   0  0  0  0  0  0  0  0  0  0  0  0
  -21.7618   -4.3717  -30.3788 C   0  0  0  0  0  0  0  0  0  0  0  0
  -21.0545   -4.8742  -28.1204 C   0  0  0  0  0  0  0  0  0  0  0  0
  -21.9179   -3.8822  -27.5837 C   0  0  0  0  0  0  0  0  0  0  0  0
  -22.5636   -3.3826  -29.8504 C   0  0  0  0  0  0  0  0  0  0  0  0
  -22.6698   -3.0997  -28.4893 C   0  0  0  0  0  0  0  0  0  0  0  0
  -21.9895   -4.2816  -31.7650 C   0  0  0  0  0  0  0  0  0  0  0  0
  -18.8519   -3.7758  -26.3220 C   0  0  0  0  0  0  0  0  0  0  0  0
  -19.1592   -5.9296  -24.9772 C   0  0  0  0  0  0  0  0  0  0  0  0
  -16.9799   -5.0314  -25.7519 C   0  0  0  0  0  0  0  0  0  0  0  0
  -19.7729   -7.4467  -35.5666 C   0  0  0  0  0  0  0  0  0  0  0  0
  -20.1765   -5.7003  -27.2056 C   0  0  0  0  0  0  0  0  0  0  0  0
  -23.0948   -2.9078  -25.6169 C   0  0  0  0  0  0  0  0  0  0  0  0
  -20.8216   -8.5346  -33.8625 C   0  0  0  0  0  0  0  0  0  0  0  0
  -21.1592   -4.4651  -25.2761 C   0  0  2  0  0  0  0  0  0  0  0  0
  -20.5118   -7.1254  -33.4014 C   0  0  2  0  0  0  0  0  0  0  0  0
  -23.4496   -3.4755  -24.2411 C   0  0  2  0  0  0  0  0  0  0  0  0
  -21.0672   -3.7645  -23.8893 C   0  0  1  0  0  0  0  0  0  0  0  0
  -19.8084   -4.9241  -25.9147 C   0  0  2  0  0  0  0  0  0  0  0  0
  -24.5940   -2.6932  -23.6071 C   0  0  0  0  0  0  0  0  0  0  0  0
  -20.2142   -2.5049  -23.7924 C   0  0  0  0  0  0  0  0  0  0  0  0
  -21.6834   -6.4309  -32.7358 C   0  0  0  0  0  0  0  0  0  0  0  0
  -22.8591   -3.3153  -32.0746 N   0  0  0  0  0  0  0  0  0  0  0  0
  -17.5662   -4.0903  -26.4901 N   0  5  0  0  0  0  0  0  0  0  0  0
  -17.7822   -5.8700  -24.9840 N   0  0  0  0  0  0  0  0  0  0  0  0
  -20.1027   -6.5015  -34.6200 N   0  0  0  0  0  0  0  0  0  0  0  0
  -21.9885   -3.6716  -26.2022 N   0  0  3  0  0  0  0  0  0  0  0  0
  -19.2937   -2.6613  -26.6015 O   0  0  0  0  0  0  0  0  0  0  0  0
  -19.7860   -6.7619  -24.3248 O   0  0  0  0  0  0  0  0  0  0  0  0
  -15.7581   -5.2041  -25.7342 O   0  0  0  0  0  0  0  0  0  0  0  0
  -19.2713   -7.2426  -36.6630 O   0  0  0  0  0  0  0  0  0  0  0  0
  -23.2189   -2.7454  -30.8591 O   0  0  0  0  0  0  0  0  0  0  0  0
  -20.0812   -8.6947  -35.0851 O   0  0  0  0  0  0  0  0  0  0  0  0
  -22.3489   -3.4184  -23.3412 O   0  0  0  0  0  0  0  0  0  0  0  0
  -21.4584   -5.0121  -32.7544 O   0  0  0  0  0  0  0  0  0  0  0  0
  -23.4330   -2.0696  -28.1022 F   0  0  0  0  0  0  0  0  0  0  0  0
  -20.3335   -5.9203  -29.8915 H   0  0  0  0  0  0  0  0  0  0  0  0
  -20.7155   -6.6267  -26.9651 H   0  0  0  0  0  0  0  0  0  0  0  0
  -19.2645   -5.9997  -27.7392 H   0  0  0  0  0  0  0  0  0  0  0  0
  -24.0052   -2.9845  -26.2208 H   0  0  0  0  0  0  0  0  0  0  0  0
  -22.8008   -1.8546  -25.5450 H   0  0  0  0  0  0  0  0  0  0  0  0
  -20.4813   -9.2834  -33.1410 H   0  0  0  0  0  0  0  0  0  0  0  0
  -21.8816   -8.7012  -34.0819 H   0  0  0  0  0  0  0  0  0  0  0  0
  -21.7459   -5.3798  -25.0941 H   0  0  0  0  0  0  0  0  0  0  0  0
  -19.6424   -7.1230  -32.7341 H   0  0  0  0  0  0  0  0  0  0  0  0
  -23.7675   -4.5221  -24.3318 H   0  0  0  0  0  0  0  0  0  0  0  0
  -20.6455   -4.4809  -23.1744 H   0  0  0  0  0  0  0  0  0  0  0  0
  -24.3142   -1.6454  -23.5005 H   0  0  0  0  0  0  0  0  0  0  0  0
  -24.8227   -3.1008  -22.6227 H   0  0  0  0  0  0  0  0  0  0  0  0
  -25.4829   -2.7607  -24.2340 H   0  0  0  0  0  0  0  0  0  0  0  0
  -20.5861   -1.7497  -24.4844 H   0  0  0  0  0  0  0  0  0  0  0  0
  -19.1793   -2.7364  -24.0431 H   0  0  0  0  0  0  0  0  0  0  0  0
  -20.2529   -2.1067  -22.7787 H   0  0  0  0  0  0  0  0  0  0  0  0
  -21.7835   -6.7583  -31.6966 H   0  0  0  0  0  0  0  0  0  0  0  0
  -22.6127   -6.6475  -33.2709 H   0  0  0  0  0  0  0  0  0  0  0  0
  -17.2993   -6.5094  -24.3589 H   0  0  0  0  0  0  0  0  0  0  0  0
  -20.0608   -5.4979  -34.7682 H   0  0  0  0  0  0  0  0  0  0  0  0
  1  2  2  0  0  0  0
  1  3  1  0  0  0  0
  2  5  1  0  0  0  0
  2  7  1  0  0  0  0
  3  4  2  0  0  0  0
  3 12  1  0  0  0  0
  4  6  1  0  0  0  0
  4 27  1  0  0  0  0
  5  6  2  0  0  0  0
  5 32  1  0  0  0  0
  6 36  1  0  0  0  0
  7 23  2  0  0  0  0
  7 35  1  0  0  0  0
  8 19  1  0  0  0  0
  8 24  1  0  0  0  0
  8 28  2  0  0  0  0
  9 19  1  0  0  0  0
  9 25  1  0  0  0  0
  9 29  2  0  0  0  0
 10 24  1  0  0  0  0
 10 25  1  0  0  0  0
 10 30  2  0  0  0  0
 11 26  1  0  0  0  0
 11 31  2  0  0  0  0
 11 33  1  0  0  0  0
 12 19  1  0  0  0  0
 13 17  1  0  0  0  0
 13 27  1  0  0  0  0
 14 16  1  0  0  0  0
 14 33  1  0  0  0  0
 15 18  1  0  0  0  0
 15 19  1  0  0  0  0
 15 27  1  0  0  0  0
 16 22  1  0  0  0  0
 16 26  1  0  0  0  0
 17 20  1  0  0  0  0
 17 34  1  0  0  0  0
 18 21  1  0  0  0  0
 18 34  1  0  0  0  0
 22 35  1  0  0  0  0
 23 32  1  0  0  0  0
  1 37  1  0  0  0  0
 12 38  1  0  0  0  0
 12 39  1  0  0  0  0
 13 40  1  0  0  0  0
 13 41  1  0  0  0  0
 14 42  1  0  0  0  0
 14 43  1  0  0  0  0
 15 44  1  0  0  0  0
 16 45  1  0  0  0  0
 17 46  1  0  0  0  0
 18 47  1  0  0  0  0
 20 48  1  0  0  0  0
 20 49  1  0  0  0  0
 20 50  1  0  0  0  0
 21 51  1  0  0  0  0
 21 52  1  0  0  0  0
 21 53  1  0  0  0  0
 22 54  1  0  0  0  0
 22 55  1  0  0  0  0
 25 56  1  0  0  0  0
 26 57  1  0  0  0  0
M  CHG  1  24  -1
M  END
> <SMILES>
C[C@H]1CN2[C@H]([C@@H](C)O1)C1(Cc3cc4c(noc4c(c32)F)OC[C@H]2COC(=O)N2)C(=O)NC(=O)NC1=O

> <FORMATTED_ID>
H3D-006113

> <MOLFORMULA>
C22H22FN5O8

> <Exact Mass>
503.15

> <XLogP>
-0.35

> <TPSA_NOPS>
161.6

> <s_m_source_file>
ligprep_h3d.sdf

> <i_m_source_file_index>
993

> <i_lp_mmshare_version>
55123

> <i_f3d_flags>
0

> <s_epik_input>
Tz1DMVtOSF1DKD1PKVtOSF1DKD1PKUMxMltDQEBIXTNOKFtDSDJdW0NASF0oW0NIM10pT1tDQEBIXTNbQ0gzXSljNGMoW0NIMl0yKVtjSF1jNWMoYzRGKW9uYzVPW0NIMl1bQ0BIXTZbQ0gyXU9DKD1PKVtOSF02

> <s_epik_cmdline>
J2VwaWtfcHl0aG9uJywgJy1waHQnLCAnMC41JywgJy1waCcsICc3LjUnLCAnLXRuJywgJzgnLCAnLW1hJywgJzUwMCcsICctaW1hZScsICc8aW5maWxlLm1hZT4nLCAnLW9tYWUnLCAnPG91dGZpbGUubWFlPic=

> <r_lp_tautomer_probability>
1

> <r_epik_Ionization_Penalty>
0.455392

> <r_epik_Ionization_Penalty_Charging>
0.455373

> <r_epik_Ionization_Penalty_Neutral>
1.8759e-05

> <r_epik_State_Penalty>
0.458483

> <r_epik_Charging_Adjusted_Penalty>
0.913857

> <i_epik_Tot_Q>
-1

> <i_epik_Tot_abs_Q>
1

> <s_epik_Chemistry_Notes>
This compound has an ester and may undergo hydrolysis at high or low pH.

> <s_lp_Force_Field>
S-OPLS

> <r_lp_Energy>
46.2929

> <b_lp_Chiralities_Consistent>
1

> <s_lp_Variant>
ligprep_h3d.sdf:993-2

> <ROCS_ShapeQuery>
_7L13

> <ROCS_TanimotoCombo>
0.746 

> <ROCS_ShapeTanimoto>
0.629 

> <ROCS_ColorTanimoto>
0.117 

> <ROCS_RefTversky>
0.784 

> <ROCS_RefColorTversky>
0.291 

> <ROCS_RefTverskyCombo>
1.075 

> <ROCS_FitTversky>
0.760 

> <ROCS_FitColorTversky>
0.164 

> <ROCS_FitTverskyCombo>
0.925 

> <ROCS_ColorScore>
-2.737

> <ROCS_Overlap>
1304.254

> <ROCS_Rank>
311                 

$$$$
ligprep_h3d.sdf:1401_1971
  -OEChem-08212117123D

 71 76  0     1  0  0  0  0  0999 V2000
  -19.4117   -3.5906  -32.0105 C   0  0  0  0  0  0  0  0  0  0  0  0
  -19.8730   -5.9594  -32.1253 C   0  0  0  0  0  0  0  0  0  0  0  0
  -18.6215   -3.6890  -33.1558 C   0  0  0  0  0  0  0  0  0  0  0  0
  -19.0829   -6.0578  -33.2706 C   0  0  0  0  0  0  0  0  0  0  0  0
  -17.1157   -4.9351  -25.8987 C   0  0  0  0  0  0  0  0  0  0  0  0
  -23.0178   -4.2521  -29.2855 C   0  0  0  0  0  0  0  0  0  0  0  0
  -21.4024   -4.7503  -25.4891 C   0  0  0  0  0  0  0  0  0  0  0  0
  -17.5248   -6.2787  -25.9940 C   0  0  0  0  0  0  0  0  0  0  0  0
  -21.1121   -4.6909  -27.8885 C   0  0  0  0  0  0  0  0  0  0  0  0
  -20.0374   -4.7258  -31.4953 C   0  0  0  0  0  0  0  0  0  0  0  0
  -20.8606   -4.6233  -30.3017 C   0  0  0  0  0  0  0  0  0  0  0  0
  -18.4572   -4.9225  -33.7858 C   0  0  0  0  0  0  0  0  0  0  0  0
  -22.2177   -4.3529  -30.4263 C   0  0  0  0  0  0  0  0  0  0  0  0
  -20.3071   -4.7922  -29.0358 C   0  0  0  0  0  0  0  0  0  0  0  0
  -22.4908   -4.4167  -28.0074 C   0  0  0  0  0  0  0  0  0  0  0  0
  -20.5810   -4.8564  -26.6022 C   0  0  0  0  0  0  0  0  0  0  0  0
  -18.2605   -4.2107  -26.1249 C   0  0  0  0  0  0  0  0  0  0  0  0
  -22.7383   -4.4798  -25.7053 C   0  0  0  0  0  0  0  0  0  0  0  0
  -18.5376   -6.8619  -36.4794 C   0  0  0  0  0  0  0  0  0  0  0  0
  -19.9023   -5.5004  -37.8751 C   0  0  0  0  0  0  0  0  0  0  0  0
  -24.2524   -4.2463  -22.3554 C   0  0  0  0  0  0  0  0  0  0  0  0
  -18.9130   -4.6219  -37.1355 C   0  0  0  0  0  0  0  0  0  0  0  0
  -23.0943   -3.9102  -23.2885 C   0  0  0  0  0  0  0  0  0  0  0  0
  -24.9739   -4.6997  -24.5910 C   0  0  0  0  0  0  0  0  0  0  0  0
  -19.2675   -6.8854  -37.8090 C   0  0  2  0  0  0  0  0  0  0  0  0
  -25.4731   -4.1461  -23.2579 C   0  0  1  0  0  0  0  0  0  0  0  0
  -22.8636   -4.1635  -31.7621 C   0  0  0  0  0  0  0  0  0  0  0  0
  -18.8331   -5.0806  -28.9798 C   0  0  0  0  0  0  0  0  0  0  0  0
  -18.4826   -2.7518  -26.1567 C   0  0  0  0  0  0  0  0  0  0  0  0
  -17.6122   -5.0278  -35.0102 C   0  0  0  0  0  0  0  0  0  0  0  0
  -18.8278   -6.4033  -26.2599 N   0  0  0  0  0  0  0  0  0  0  0  0
  -23.2903   -4.3131  -26.9290 N   0  0  0  0  0  0  0  0  0  0  0  0
  -19.2474   -5.1287  -26.3334 N   0  0  0  0  0  0  0  0  0  0  0  0
  -23.5503   -4.3752  -24.5959 N   0  0  3  0  0  0  0  0  0  0  0  0
  -18.3546   -5.5193  -36.1503 N   0  0  0  0  0  0  0  0  0  0  0  0
  -18.1813   -7.8499  -35.8554 O   0  0  0  0  0  0  0  0  0  0  0  0
  -20.2443   -7.8932  -37.8636 O   0  0  0  0  0  0  0  0  0  0  0  0
  -26.5484   -4.9169  -22.7593 O   0  0  0  0  0  0  0  0  0  0  0  0
  -19.5296   -2.6221  -31.5304 H   0  0  0  0  0  0  0  0  0  0  0  0
  -20.3548   -6.8532  -31.7362 H   0  0  0  0  0  0  0  0  0  0  0  0
  -18.1369   -2.7996  -33.5496 H   0  0  0  0  0  0  0  0  0  0  0  0
  -18.9608   -7.0228  -33.7555 H   0  0  0  0  0  0  0  0  0  0  0  0
  -16.1281   -4.5482  -25.6941 H   0  0  0  0  0  0  0  0  0  0  0  0
  -24.0803   -4.0399  -29.3982 H   0  0  0  0  0  0  0  0  0  0  0  0
  -21.0127   -4.8749  -24.4825 H   0  0  0  0  0  0  0  0  0  0  0  0
  -16.9277   -7.1722  -25.8806 H   0  0  0  0  0  0  0  0  0  0  0  0
  -20.8787   -5.4960  -37.3744 H   0  0  0  0  0  0  0  0  0  0  0  0
  -20.0625   -5.1729  -38.9070 H   0  0  0  0  0  0  0  0  0  0  0  0
  -24.1309   -5.2362  -21.9085 H   0  0  0  0  0  0  0  0  0  0  0  0
  -24.3127   -3.4963  -21.5596 H   0  0  0  0  0  0  0  0  0  0  0  0
  -18.1046   -4.2739  -37.7859 H   0  0  0  0  0  0  0  0  0  0  0  0
  -19.3998   -3.7710  -36.6515 H   0  0  0  0  0  0  0  0  0  0  0  0
  -22.8709   -2.8350  -23.2795 H   0  0  0  0  0  0  0  0  0  0  0  0
  -22.1829   -4.4568  -23.0085 H   0  0  0  0  0  0  0  0  0  0  0  0
  -25.1388   -5.7825  -24.6866 H   0  0  0  0  0  0  0  0  0  0  0  0
  -25.4589   -4.1880  -25.4350 H   0  0  0  0  0  0  0  0  0  0  0  0
  -18.5373   -7.0248  -38.6139 H   0  0  0  0  0  0  0  0  0  0  0  0
  -25.8170   -3.0954  -23.3555 H   0  0  0  0  0  0  0  0  0  0  0  0
  -22.8309   -3.1075  -32.0510 H   0  0  0  0  0  0  0  0  0  0  0  0
  -22.3556   -4.7547  -32.5328 H   0  0  0  0  0  0  0  0  0  0  0  0
  -23.9098   -4.4908  -31.7438 H   0  0  0  0  0  0  0  0  0  0  0  0
  -18.6654   -6.1600  -29.0141 H   0  0  0  0  0  0  0  0  0  0  0  0
  -18.3149   -4.6116  -29.8209 H   0  0  0  0  0  0  0  0  0  0  0  0
  -18.3952   -4.6798  -28.0613 H   0  0  0  0  0  0  0  0  0  0  0  0
  -18.3374   -2.3499  -27.1728 H   0  0  0  0  0  0  0  0  0  0  0  0
  -19.5017   -2.4812  -25.8316 H   0  0  0  0  0  0  0  0  0  0  0  0
  -17.7947   -2.2138  -25.4820 H   0  0  0  0  0  0  0  0  0  0  0  0
  -17.1918   -4.0506  -35.2866 H   0  0  0  0  0  0  0  0  0  0  0  0
  -16.7619   -5.7064  -34.8559 H   0  0  0  0  0  0  0  0  0  0  0  0
  -20.6688   -7.8479  -38.7411 H   0  0  0  0  0  0  0  0  0  0  0  0
  -26.7576   -4.5661  -21.8791 H   0  0  0  0  0  0  0  0  0  0  0  0
  1  3  1  0  0  0  0
  1 10  2  0  0  0  0
  2  4  2  0  0  0  0
  2 10  1  0  0  0  0
  3 12  2  0  0  0  0
  4 12  1  0  0  0  0
  5  8  1  0  0  0  0
  5 17  2  0  0  0  0
  6 13  2  0  0  0  0
  6 15  1  0  0  0  0
  7 16  1  0  0  0  0
  7 18  2  0  0  0  0
  8 31  2  0  0  0  0
  9 14  1  0  0  0  0
  9 15  1  0  0  0  0
  9 16  2  0  0  0  0
 10 11  1  0  0  0  0
 11 13  1  0  0  0  0
 11 14  2  0  0  0  0
 12 30  1  0  0  0  0
 13 27  1  0  0  0  0
 14 28  1  0  0  0  0
 15 32  2  0  0  0  0
 16 33  1  0  0  0  0
 17 29  1  0  0  0  0
 17 33  1  0  0  0  0
 18 32  1  0  0  0  0
 18 34  1  0  0  0  0
 19 25  1  0  0  0  0
 19 35  1  0  0  0  0
 19 36  2  0  0  0  0
 20 22  1  0  0  0  0
 20 25  1  0  0  0  0
 21 23  1  0  0  0  0
 21 26  1  0  0  0  0
 22 35  1  0  0  0  0
 23 34  1  0  0  0  0
 24 26  1  0  0  0  0
 24 34  1  0  0  0  0
 25 37  1  0  0  0  0
 26 38  1  0  0  0  0
 30 35  1  0  0  0  0
 31 33  1  0  0  0  0
  1 39  1  0  0  0  0
  2 40  1  0  0  0  0
  3 41  1  0  0  0  0
  4 42  1  0  0  0  0
  5 43  1  0  0  0  0
  6 44  1  0  0  0  0
  7 45  1  0  0  0  0
  8 46  1  0  0  0  0
 20 47  1  0  0  0  0
 20 48  1  0  0  0  0
 21 49  1  0  0  0  0
 21 50  1  0  0  0  0
 22 51  1  0  0  0  0
 22 52  1  0  0  0  0
 23 53  1  0  0  0  0
 23 54  1  0  0  0  0
 24 55  1  0  0  0  0
 24 56  1  0  0  0  0
 25 57  1  0  0  0  0
 26 58  1  0  0  0  0
 27 59  1  0  0  0  0
 27 60  1  0  0  0  0
 27 61  1  0  0  0  0
 28 62  1  0  0  0  0
 28 63  1  0  0  0  0
 28 64  1  0  0  0  0
 29 65  1  0  0  0  0
 29 66  1  0  0  0  0
 29 67  1  0  0  0  0
 30 68  1  0  0  0  0
 30 69  1  0  0  0  0
 37 70  1  0  0  0  0
 38 71  1  0  0  0  0
M  END
> <SMILES>
Cc1cc2nc(cc(c2c(c1-c1ccc(cc1)CN1CC[C@H](O)C1=O)C)-n1nccc1C)N1CCC(O)C1

> <FORMATTED_ID>
H3D-009451

> <MOLFORMULA>
C30H33N5O3

> <Exact Mass>
511.26

> <XLogP>
3.92

> <TPSA_NOPS>
94.7

> <s_m_source_file>
ligprep_h3d.sdf

> <i_m_source_file_index>
1401

> <i_lp_mmshare_version>
55123

> <i_f3d_flags>
0

> <s_epik_input>
W09IXVtDQEhdKFtDSDJdMSlbQ0gyXVtDSDJdTjFjKG4yKVtjSF1jKC1uM25bY0hdW2NIXWMzW0NIM10pYyhjMjQpYyhbQ0gzXSljKGMoW0NIM10pW2NIXTQpLWM1W2NIXVtjSF1jKFtjSF1bY0hdNSlbQ0gyXU42W0NIMl1bQ0gyXVtDQEhdKFtPSF0pQzY9Tw==

> <s_epik_cmdline>
J2VwaWtfcHl0aG9uJywgJy1waHQnLCAnMC41JywgJy1waCcsICc3LjUnLCAnLXRuJywgJzgnLCAnLW1hJywgJzUwMCcsICctaW1hZScsICc8aW5maWxlLm1hZT4nLCAnLW9tYWUnLCAnPG91dGZpbGUubWFlPic=

> <r_lp_tautomer_probability>
1

> <r_epik_Ionization_Penalty>
0.00164282

> <r_epik_Ionization_Penalty_Charging>
0

> <r_epik_Ionization_Penalty_Neutral>
0.00164282

> <r_epik_State_Penalty>
-0

> <r_epik_Charging_Adjusted_Penalty>
0

> <i_epik_Tot_Q>
0

> <i_epik_Tot_abs_Q>
0

> <s_lp_Force_Field>
S-OPLS

> <r_lp_Energy>
34.6881

> <b_lp_Chiralities_Consistent>
1

> <s_lp_Variant>
ligprep_h3d.sdf:1401-1

> <ROCS_ShapeQuery>
_7L13

> <ROCS_TanimotoCombo>
0.723 

> <ROCS_ShapeTanimoto>
0.611 

> <ROCS_ColorTanimoto>
0.111 

> <ROCS_RefTversky>
0.784 

> <ROCS_RefColorTversky>
0.240 

> <ROCS_RefTverskyCombo>
1.024 

> <ROCS_FitTversky>
0.735 

> <ROCS_FitColorTversky>
0.172 

> <ROCS_FitTverskyCombo>
0.907 

> <ROCS_ColorScore>
-2.207

> <ROCS_Overlap>
1306.482

> <ROCS_Rank>
312                 

$$$$
ligprep_h3d.sdf:3005_1170
  -OEChem-08212117123D

 78 84  0     0  0  0  0  0  0999 V2000
  -25.7508   -5.1275  -23.4241 C   0  0  0  0  0  0  0  0  0  0  0  0
  -25.1373   -4.0441  -22.7909 C   0  0  0  0  0  0  0  0  0  0  0  0
  -18.9401   -4.9718  -35.4169 C   0  0  0  0  0  0  0  0  0  0  0  0
  -20.7746   -6.1891  -34.4220 C   0  0  0  0  0  0  0  0  0  0  0  0
  -19.2581   -3.8577  -34.6402 C   0  0  0  0  0  0  0  0  0  0  0  0
  -21.0926   -5.0750  -33.6453 C   0  0  0  0  0  0  0  0  0  0  0  0
  -25.2201   -5.6703  -24.6011 C   0  0  0  0  0  0  0  0  0  0  0  0
  -23.9741   -3.4646  -23.3085 C   0  0  0  0  0  0  0  0  0  0  0  0
  -18.0634   -2.9090  -25.5510 C   0  0  0  0  0  0  0  0  0  0  0  0
  -16.9131   -2.8273  -26.3791 C   0  0  0  0  0  0  0  0  0  0  0  0
  -19.6984   -6.1375  -35.3079 C   0  0  0  0  0  0  0  0  0  0  0  0
  -20.3344   -3.9093  -33.7544 C   0  0  0  0  0  0  0  0  0  0  0  0
  -24.0521   -5.1003  -25.1351 C   0  0  0  0  0  0  0  0  0  0  0  0
  -17.7151   -5.2303  -25.2633 C   0  0  0  0  0  0  0  0  0  0  0  0
  -16.5338   -5.1465  -26.1137 C   0  0  0  0  0  0  0  0  0  0  0  0
  -23.4635   -4.0215  -24.4814 C   0  0  0  0  0  0  0  0  0  0  0  0
  -18.5079   -4.1073  -24.9633 C   0  0  0  0  0  0  0  0  0  0  0  0
  -16.1068   -3.9368  -26.6917 C   0  0  0  0  0  0  0  0  0  0  0  0
  -19.3701   -7.2845  -36.1072 C   0  0  0  0  0  0  0  0  0  0  0  0
  -19.2830   -9.2519  -36.7406 C   0  0  0  0  0  0  0  0  0  0  0  0
  -22.3363   -4.5887  -26.2987 C   0  0  0  0  0  0  0  0  0  0  0  0
  -19.7675   -5.4121  -28.9000 C   0  0  0  0  0  0  0  0  0  0  0  0
  -22.1887   -4.9762  -29.4731 C   0  0  0  0  0  0  0  0  0  0  0  0
  -19.3720   -4.1382  -29.6381 C   0  0  0  0  0  0  0  0  0  0  0  0
  -21.7764   -3.6999  -30.1967 C   0  0  0  0  0  0  0  0  0  0  0  0
  -21.2037   -5.3740  -28.3720 C   0  0  0  0  0  0  0  0  0  0  0  0
  -20.6750   -2.7100  -32.9179 C   0  0  0  0  0  0  0  0  0  0  0  0
  -21.4240   -2.6527  -24.9770 C   0  0  0  0  0  0  0  0  0  0  0  0
  -20.4465   -2.9921  -23.8570 C   0  0  0  0  0  0  0  0  0  0  0  0
  -19.9638   -2.6770  -31.5689 C   0  0  0  0  0  0  0  0  0  0  0  0
  -19.3684  -10.6995  -36.9754 C   0  0  0  0  0  0  0  0  0  0  0  0
  -23.3380   -5.4386  -26.2616 N   0  0  0  0  0  0  0  0  0  0  0  0
  -17.8581   -6.5024  -24.8710 N   0  0  0  0  0  0  0  0  0  0  0  0
  -15.9996   -6.3705  -26.2087 N   0  0  0  0  0  0  0  0  0  0  0  0
  -19.7934   -8.5371  -35.7700 N   0  0  0  0  0  0  0  0  0  0  0  0
  -18.6367   -7.1993  -37.2210 N   0  0  0  0  0  0  0  0  0  0  0  0
  -22.3682   -3.7150  -25.2476 N   0  0  0  0  0  0  0  0  0  0  0  0
  -19.6399   -4.1436  -24.1593 N   0  0  0  0  0  0  0  0  0  0  0  0
  -21.3210   -4.4951  -27.2309 N   0  0  0  0  0  0  0  0  0  0  0  0
  -14.9605   -3.8615  -27.5131 N   0  3  0  0  0  0  0  0  0  0  0  0
  -20.3736   -3.8573  -30.7316 N   0  3  0  0  0  0  0  0  0  0  0  0
  -13.8413   -3.6250  -26.9884 O   0  5  0  0  0  0  0  0  0  0  0  0
  -15.0802   -4.0320  -28.7544 O   0  0  0  0  0  0  0  0  0  0  0  0
  -18.5769   -8.5310  -37.6507 O   0  0  0  0  0  0  0  0  0  0  0  0
  -16.8097   -7.1972  -25.4493 O   0  0  0  0  0  0  0  0  0  0  0  0
  -20.0920  -11.3884  -36.0305 F   0  0  0  0  0  0  0  0  0  0  0  0
  -19.9561  -11.0490  -38.1683 F   0  0  0  0  0  0  0  0  0  0  0  0
  -18.1449  -11.3238  -36.9967 F   0  0  0  0  0  0  0  0  0  0  0  0
  -26.6540   -5.5564  -22.9974 H   0  0  0  0  0  0  0  0  0  0  0  0
  -25.5710   -3.6434  -21.8780 H   0  0  0  0  0  0  0  0  0  0  0  0
  -18.0984   -4.9151  -36.1031 H   0  0  0  0  0  0  0  0  0  0  0  0
  -21.3753   -7.0905  -34.3255 H   0  0  0  0  0  0  0  0  0  0  0  0
  -18.6617   -2.9538  -34.7307 H   0  0  0  0  0  0  0  0  0  0  0  0
  -21.9327   -5.1233  -32.9575 H   0  0  0  0  0  0  0  0  0  0  0  0
  -25.7042   -6.5120  -25.0857 H   0  0  0  0  0  0  0  0  0  0  0  0
  -23.4986   -2.6240  -22.8159 H   0  0  0  0  0  0  0  0  0  0  0  0
  -18.6220   -1.9909  -25.3678 H   0  0  0  0  0  0  0  0  0  0  0  0
  -16.6510   -1.8509  -26.7867 H   0  0  0  0  0  0  0  0  0  0  0  0
  -19.6664   -6.2641  -29.5854 H   0  0  0  0  0  0  0  0  0  0  0  0
  -19.0630   -5.5981  -28.0802 H   0  0  0  0  0  0  0  0  0  0  0  0
  -23.1975   -4.8572  -29.0594 H   0  0  0  0  0  0  0  0  0  0  0  0
  -22.2542   -5.7940  -30.2029 H   0  0  0  0  0  0  0  0  0  0  0  0
  -19.3483   -3.2666  -28.9748 H   0  0  0  0  0  0  0  0  0  0  0  0
  -18.3929   -4.2596  -30.1131 H   0  0  0  0  0  0  0  0  0  0  0  0
  -22.4348   -3.5167  -31.0523 H   0  0  0  0  0  0  0  0  0  0  0  0
  -21.7873   -2.8257  -29.5365 H   0  0  0  0  0  0  0  0  0  0  0  0
  -21.4714   -6.3976  -28.0245 H   0  0  0  0  0  0  0  0  0  0  0  0
  -20.3995   -1.8054  -33.4762 H   0  0  0  0  0  0  0  0  0  0  0  0
  -21.7606   -2.6454  -32.7684 H   0  0  0  0  0  0  0  0  0  0  0  0
  -22.0093   -1.7644  -24.7106 H   0  0  0  0  0  0  0  0  0  0  0  0
  -20.8949   -2.4240  -25.9099 H   0  0  0  0  0  0  0  0  0  0  0  0
  -19.7582   -2.1569  -23.6953 H   0  0  0  0  0  0  0  0  0  0  0  0
  -20.9683   -3.1945  -22.9162 H   0  0  0  0  0  0  0  0  0  0  0  0
  -20.2474   -1.7850  -31.0024 H   0  0  0  0  0  0  0  0  0  0  0  0
  -18.8743   -2.7157  -31.6622 H   0  0  0  0  0  0  0  0  0  0  0  0
  -19.9093   -5.0399  -23.7624 H   0  0  0  0  0  0  0  0  0  0  0  0
  -20.6185   -3.7780  -27.1159 H   0  0  0  0  0  0  0  0  0  0  0  0
  -20.3759   -4.6722  -31.3607 H   0  0  0  0  0  0  0  0  0  0  0  0
  1  2  2  0  0  0  0
  1  7  1  0  0  0  0
  2  8  1  0  0  0  0
  3  5  1  0  0  0  0
  3 11  2  0  0  0  0
  4  6  2  0  0  0  0
  4 11  1  0  0  0  0
  5 12  2  0  0  0  0
  6 12  1  0  0  0  0
  7 13  2  0  0  0  0
  8 16  2  0  0  0  0
  9 10  1  0  0  0  0
  9 17  2  0  0  0  0
 10 18  2  0  0  0  0
 11 19  1  0  0  0  0
 12 27  1  0  0  0  0
 13 16  1  0  0  0  0
 13 32  1  0  0  0  0
 14 15  1  0  0  0  0
 14 17  1  0  0  0  0
 14 33  2  0  0  0  0
 15 18  1  0  0  0  0
 15 34  2  0  0  0  0
 16 37  1  0  0  0  0
 17 38  1  0  0  0  0
 18 40  1  0  0  0  0
 19 35  1  0  0  0  0
 19 36  2  0  0  0  0
 20 31  1  0  0  0  0
 20 35  2  0  0  0  0
 20 44  1  0  0  0  0
 21 32  2  0  0  0  0
 21 37  1  0  0  0  0
 21 39  1  0  0  0  0
 22 24  1  0  0  0  0
 22 26  1  0  0  0  0
 23 25  1  0  0  0  0
 23 26  1  0  0  0  0
 24 41  1  0  0  0  0
 25 41  1  0  0  0  0
 26 39  1  0  0  0  0
 27 30  1  0  0  0  0
 28 29  1  0  0  0  0
 28 37  1  0  0  0  0
 29 38  1  0  0  0  0
 30 41  1  0  0  0  0
 31 46  1  0  0  0  0
 31 47  1  0  0  0  0
 31 48  1  0  0  0  0
 33 45  1  0  0  0  0
 34 45  1  0  0  0  0
 36 44  1  0  0  0  0
 40 42  1  0  0  0  0
 40 43  2  0  0  0  0
  1 49  1  0  0  0  0
  2 50  1  0  0  0  0
  3 51  1  0  0  0  0
  4 52  1  0  0  0  0
  5 53  1  0  0  0  0
  6 54  1  0  0  0  0
  7 55  1  0  0  0  0
  8 56  1  0  0  0  0
  9 57  1  0  0  0  0
 10 58  1  0  0  0  0
 22 59  1  0  0  0  0
 22 60  1  0  0  0  0
 23 61  1  0  0  0  0
 23 62  1  0  0  0  0
 24 63  1  0  0  0  0
 24 64  1  0  0  0  0
 25 65  1  0  0  0  0
 25 66  1  0  0  0  0
 26 67  1  0  0  0  0
 27 68  1  0  0  0  0
 27 69  1  0  0  0  0
 28 70  1  0  0  0  0
 28 71  1  0  0  0  0
 29 72  1  0  0  0  0
 29 73  1  0  0  0  0
 30 74  1  0  0  0  0
 30 75  1  0  0  0  0
 38 76  1  0  0  0  0
 39 77  1  0  0  0  0
 41 78  1  0  0  0  0
M  CHG  3  40   1  41   1  42  -1
M  END
> <SMILES>
[O-][N+](=O)c1ccc(c2nonc12)NCCn1c(nc2ccccc12)NC1CCN(CC1)CCc1ccc(cc1)-c1noc(n1)C(F)(F)F

> <FORMATTED_ID>
H3D-014806

> <MOLFORMULA>
C31H29F3N10O4

> <Exact Mass>
662.23

> <XLogP>
6.17

> <TPSA_NOPS>
166.7

> <s_m_source_file>
ligprep_h3d.sdf

> <i_m_source_file_index>
3005

> <i_lp_mmshare_version>
55123

> <i_f3d_flags>
0

> <s_epik_input>
bjFvbmMoYzEyKWMoW04rXShbTy1dKT1PKVtjSF1bY0hdYzJbTkhdW0NIMl1bQ0gyXW4oYyhjMzQpW2NIXVtjSF1bY0hdW2NIXTQpYyhuMylbTkhdW0NIXTVbQ0gyXVtDSDJdTihbQ0gyXVtDSDJdNSlbQ0gyXVtDSDJdYzZbY0hdW2NIXWMoW2NIXVtjSF02KS1jN25vYyhuNylDKEYpKEYpRg==

> <s_epik_cmdline>
J2VwaWtfcHl0aG9uJywgJy1waHQnLCAnMC41JywgJy1waCcsICc3LjUnLCAnLXRuJywgJzgnLCAnLW1hJywgJzUwMCcsICctaW1hZScsICc8aW5maWxlLm1hZT4nLCAnLW9tYWUnLCAnPG91dGZpbGUubWFlPic=

> <r_lp_tautomer_probability>
1

> <r_epik_Ionization_Penalty>
0.402594

> <r_epik_Ionization_Penalty_Charging>
0.00852525

> <r_epik_Ionization_Penalty_Neutral>
0.394069

> <r_epik_State_Penalty>
0.392911

> <r_epik_Charging_Adjusted_Penalty>
0.401436

> <i_epik_Tot_Q>
1

> <i_epik_Tot_abs_Q>
3

> <s_lp_Force_Field>
S-OPLS

> <r_lp_Energy>
58.7695

> <b_lp_Chiralities_Consistent>
1

> <s_lp_Variant>
ligprep_h3d.sdf:3005-1

> <ROCS_ShapeQuery>
_7L13

> <ROCS_TanimotoCombo>
0.551 

> <ROCS_ShapeTanimoto>
0.512 

> <ROCS_ColorTanimoto>
0.039 

> <ROCS_RefTversky>
0.784 

> <ROCS_RefColorTversky>
0.108 

> <ROCS_RefTverskyCombo>
0.892 

> <ROCS_FitTversky>
0.596 

> <ROCS_FitColorTversky>
0.058 

> <ROCS_FitTverskyCombo>
0.654 

> <ROCS_ColorScore>
-1.021

> <ROCS_Overlap>
1324.604

> <ROCS_Rank>
313                 

$$$$
ligprep_h3d.sdf:5049_1840
  -OEChem-08212117123D

 66 70  0     1  0  0  0  0  0999 V2000
  -20.9135   -3.8734  -33.0909 C   0  0  0  0  0  0  0  0  0  0  0  0
  -21.8444   -6.0003  -32.4227 C   0  0  0  0  0  0  0  0  0  0  0  0
  -24.8374   -3.9556  -25.0917 C   0  0  0  0  0  0  0  0  0  0  0  0
  -23.4799   -4.8676  -23.3133 C   0  0  0  0  0  0  0  0  0  0  0  0
  -19.7040   -4.4981  -33.3947 C   0  0  0  0  0  0  0  0  0  0  0  0
  -20.6349   -6.6251  -32.7266 C   0  0  0  0  0  0  0  0  0  0  0  0
  -25.9909   -4.2848  -24.3800 C   0  0  0  0  0  0  0  0  0  0  0  0
  -24.6335   -5.1967  -22.6016 C   0  0  0  0  0  0  0  0  0  0  0  0
  -18.6881   -5.9201  -25.3564 C   0  0  0  0  0  0  0  0  0  0  0  0
  -17.3939   -4.2938  -26.5880 C   0  0  0  0  0  0  0  0  0  0  0  0
  -16.3839   -5.5069  -24.7589 C   0  0  0  0  0  0  0  0  0  0  0  0
  -21.9837   -4.6245  -32.6048 C   0  0  0  0  0  0  0  0  0  0  0  0
  -18.5934   -4.9736  -26.3766 C   0  0  0  0  0  0  0  0  0  0  0  0
  -23.5819   -4.2471  -24.5584 C   0  0  0  0  0  0  0  0  0  0  0  0
  -19.5646   -5.8740  -33.2126 C   0  0  0  0  0  0  0  0  0  0  0  0
  -25.8891   -4.9053  -23.1349 C   0  0  0  0  0  0  0  0  0  0  0  0
  -17.5834   -6.1867  -24.5475 C   0  0  0  0  0  0  0  0  0  0  0  0
  -16.2891   -4.5604  -25.7792 C   0  0  0  0  0  0  0  0  0  0  0  0
  -23.1570   -2.8830  -31.2125 C   0  0  0  0  0  0  0  0  0  0  0  0
  -23.0549   -2.6636  -28.7446 C   0  0  0  0  0  0  0  0  0  0  0  0
  -20.7900   -5.5263  -27.6076 C   0  0  0  0  0  0  0  0  0  0  0  0
  -19.9731   -3.6477  -28.1036 C   0  0  0  0  0  0  0  0  0  0  0  0
  -21.7664   -4.4447  -29.7766 C   0  0  0  0  0  0  0  0  0  0  0  0
  -22.6099   -3.6277  -27.6531 C   0  0  1  0  0  0  0  0  0  0  0  0
  -21.3795   -4.2788  -28.3044 C   0  0  0  0  0  0  0  0  0  0  0  0
  -23.9189   -3.3364  -33.5344 C   0  0  0  0  0  0  0  0  0  0  0  0
  -22.3743   -2.9511  -26.3156 C   0  0  0  0  0  0  0  0  0  0  0  0
  -23.3022   -3.9438  -32.2742 C   0  0  1  0  0  0  0  0  0  0  0  0
  -19.7030   -4.7058  -27.1900 N   0  0  0  0  0  0  0  0  0  0  0  0
  -22.6776   -3.3214  -29.9887 N   0  0  0  0  0  0  0  0  0  0  0  0
  -24.2724   -4.8207  -31.6528 N   0  0  0  0  0  0  0  0  0  0  0  0
  -22.4266   -3.9176  -25.2711 N   0  0  0  0  0  0  0  0  0  0  0  0
  -23.4508   -1.7118  -31.4584 O   0  0  0  0  0  0  0  0  0  0  0  0
  -18.3847   -6.4837  -33.5103 O   0  0  0  0  0  0  0  0  0  0  0  0
  -26.9968   -5.2213  -22.4515 F   0  0  0  0  0  0  0  0  0  0  0  0
  -17.6744   -7.0970  -23.5691 F   0  0  0  0  0  0  0  0  0  0  0  0
  -15.1367   -3.9090  -25.9835 F   0  0  0  0  0  0  0  0  0  0  0  0
  -21.0131   -2.8010  -33.2358 H   0  0  0  0  0  0  0  0  0  0  0  0
  -22.6729   -6.5936  -32.0443 H   0  0  0  0  0  0  0  0  0  0  0  0
  -24.9283   -3.4720  -26.0610 H   0  0  0  0  0  0  0  0  0  0  0  0
  -22.5067   -5.0996  -22.8884 H   0  0  0  0  0  0  0  0  0  0  0  0
  -18.8739   -3.9076  -33.7733 H   0  0  0  0  0  0  0  0  0  0  0  0
  -20.5328   -7.6971  -32.5829 H   0  0  0  0  0  0  0  0  0  0  0  0
  -26.9686   -4.0578  -24.7948 H   0  0  0  0  0  0  0  0  0  0  0  0
  -24.5548   -5.6801  -21.6323 H   0  0  0  0  0  0  0  0  0  0  0  0
  -19.6176   -6.4561  -25.1836 H   0  0  0  0  0  0  0  0  0  0  0  0
  -17.3088   -3.5550  -27.3807 H   0  0  0  0  0  0  0  0  0  0  0  0
  -15.5238   -5.7161  -24.1298 H   0  0  0  0  0  0  0  0  0  0  0  0
  -24.1443   -2.5629  -28.7579 H   0  0  0  0  0  0  0  0  0  0  0  0
  -22.6131   -1.6676  -28.6751 H   0  0  0  0  0  0  0  0  0  0  0  0
  -21.3626   -5.9171  -26.7559 H   0  0  0  0  0  0  0  0  0  0  0  0
  -20.4776   -6.3581  -28.2489 H   0  0  0  0  0  0  0  0  0  0  0  0
  -19.3137   -3.6500  -28.9733 H   0  0  0  0  0  0  0  0  0  0  0  0
  -19.9631   -2.6679  -27.6180 H   0  0  0  0  0  0  0  0  0  0  0  0
  -20.9074   -4.3094  -30.4422 H   0  0  0  0  0  0  0  0  0  0  0  0
  -22.2573   -5.3947  -30.0064 H   0  0  0  0  0  0  0  0  0  0  0  0
  -23.4279   -4.4012  -27.5035 H   0  0  0  0  0  0  0  0  0  0  0  0
  -24.8721   -2.8398  -33.3175 H   0  0  0  0  0  0  0  0  0  0  0  0
  -24.1063   -4.1053  -34.2934 H   0  0  0  0  0  0  0  0  0  0  0  0
  -23.2578   -2.5872  -33.9867 H   0  0  0  0  0  0  0  0  0  0  0  0
  -21.3914   -2.4853  -26.3588 H   0  0  0  0  0  0  0  0  0  0  0  0
  -23.1576   -2.2060  -26.1889 H   0  0  0  0  0  0  0  0  0  0  0  0
  -24.5079   -4.4575  -30.7552 H   0  0  0  0  0  0  0  0  0  0  0  0
  -25.0849   -4.8621  -32.2282 H   0  0  0  0  0  0  0  0  0  0  0  0
  -21.5713   -4.4158  -25.0114 H   0  0  0  0  0  0  0  0  0  0  0  0
  -18.4436   -7.4358  -33.3318 H   0  0  0  0  0  0  0  0  0  0  0  0
  1  5  1  0  0  0  0
  1 12  2  0  0  0  0
  2  6  2  0  0  0  0
  2 12  1  0  0  0  0
  3  7  1  0  0  0  0
  3 14  2  0  0  0  0
  4  8  2  0  0  0  0
  4 14  1  0  0  0  0
  5 15  2  0  0  0  0
  6 15  1  0  0  0  0
  7 16  2  0  0  0  0
  8 16  1  0  0  0  0
  9 13  2  0  0  0  0
  9 17  1  0  0  0  0
 10 13  1  0  0  0  0
 10 18  2  0  0  0  0
 11 17  2  0  0  0  0
 11 18  1  0  0  0  0
 12 28  1  0  0  0  0
 13 29  1  0  0  0  0
 14 32  1  0  0  0  0
 15 34  1  0  0  0  0
 16 35  1  0  0  0  0
 17 36  1  0  0  0  0
 18 37  1  0  0  0  0
 19 28  1  0  0  0  0
 19 30  1  0  0  0  0
 19 33  2  0  0  0  0
 20 24  1  0  0  0  0
 20 30  1  0  0  0  0
 21 25  1  0  0  0  0
 21 29  1  0  0  0  0
 22 25  1  0  0  0  0
 22 29  1  0  0  0  0
 23 25  1  0  0  0  0
 23 30  1  0  0  0  0
 24 25  1  0  0  0  0
 24 27  1  0  0  0  0
 26 28  1  0  0  0  0
 27 32  1  0  0  0  0
 28 31  1  0  0  0  0
  1 38  1  0  0  0  0
  2 39  1  0  0  0  0
  3 40  1  0  0  0  0
  4 41  1  0  0  0  0
  5 42  1  0  0  0  0
  6 43  1  0  0  0  0
  7 44  1  0  0  0  0
  8 45  1  0  0  0  0
  9 46  1  0  0  0  0
 10 47  1  0  0  0  0
 11 48  1  0  0  0  0
 20 49  1  0  0  0  0
 20 50  1  0  0  0  0
 21 51  1  0  0  0  0
 21 52  1  0  0  0  0
 22 53  1  0  0  0  0
 22 54  1  0  0  0  0
 23 55  1  0  0  0  0
 23 56  1  0  0  0  0
 24 57  1  0  0  0  0
 26 58  1  0  0  0  0
 26 59  1  0  0  0  0
 26 60  1  0  0  0  0
 27 61  1  0  0  0  0
 27 62  1  0  0  0  0
 31 63  1  0  0  0  0
 31 64  1  0  0  0  0
 32 65  1  0  0  0  0
 34 66  1  0  0  0  0
M  END
> <SMILES>
C[C@](N)(C(=O)N1C[C@H](CNc2ccc(cc2)F)C2(C1)CN(C2)c1cc(cc(c1)F)F)c1ccc(cc1)O

> <FORMATTED_ID>
H3D-009397

> <MOLFORMULA>
C28H29F3N4O2

> <Exact Mass>
510.22

> <XLogP>
3.56

> <TPSA_NOPS>
81.8

> <s_m_source_file>
ligprep_h3d.sdf

> <i_m_source_file_index>
5049

> <i_lp_mmshare_version>
55123

> <i_f3d_flags>
0

> <s_epik_input>
W2NIXTFbY0hdYyhbT0hdKVtjSF1bY0hdYzFbQ0BAXShbQ0gzXSkoW05IMl0pQyg9TylOKFtDSDJdMilbQ0gyXVtDQEhdKFtDSDJdW05IXWMzW2NIXVtjSF1jKEYpW2NIXVtjSF0zKUMyNFtDSDJdTihbQ0gyXTQpYzVbY0hdYyhGKVtjSF1jKEYpW2NIXTU=

> <s_epik_cmdline>
J2VwaWtfcHl0aG9uJywgJy1waHQnLCAnMC41JywgJy1waCcsICc3LjUnLCAnLXRuJywgJzgnLCAnLW1hJywgJzUwMCcsICctaW1hZScsICc8aW5maWxlLm1hZT4nLCAnLW9tYWUnLCAnPG91dGZpbGUubWFlPic=

> <r_lp_tautomer_probability>
1

> <r_epik_Ionization_Penalty>
0.049981

> <r_epik_Ionization_Penalty_Charging>
0

> <r_epik_Ionization_Penalty_Neutral>
0.049981

> <r_epik_State_Penalty>
-0

> <r_epik_Charging_Adjusted_Penalty>
0

> <i_epik_Tot_Q>
0

> <i_epik_Tot_abs_Q>
0

> <s_lp_Force_Field>
S-OPLS

> <r_lp_Energy>
46.3276

> <b_lp_Chiralities_Consistent>
1

> <s_lp_Variant>
ligprep_h3d.sdf:5049-1

> <ROCS_ShapeQuery>
_7L13

> <ROCS_TanimotoCombo>
0.694 

> <ROCS_ShapeTanimoto>
0.633 

> <ROCS_ColorTanimoto>
0.061 

> <ROCS_RefTversky>
0.784 

> <ROCS_RefColorTversky>
0.127 

> <ROCS_RefTverskyCombo>
0.911 

> <ROCS_FitTversky>
0.767 

> <ROCS_FitColorTversky>
0.106 

> <ROCS_FitTverskyCombo>
0.873 

> <ROCS_ColorScore>
-1.156

> <ROCS_Overlap>
1302.956

> <ROCS_Rank>
314                 

$$$$
ligprep_h3d.sdf:4996_1888
  -OEChem-08212117123D

 66 70  0     1  0  0  0  0  0999 V2000
  -19.8859   -5.4084  -33.0922 C   0  0  0  0  0  0  0  0  0  0  0  0
  -21.2942   -4.8917  -34.9861 C   0  0  0  0  0  0  0  0  0  0  0  0
  -23.6029   -4.9119  -24.4557 C   0  0  0  0  0  0  0  0  0  0  0  0
  -25.3010   -3.2629  -23.9718 C   0  0  0  0  0  0  0  0  0  0  0  0
  -19.1982   -6.3481  -33.8600 C   0  0  0  0  0  0  0  0  0  0  0  0
  -20.6065   -5.8314  -35.7539 C   0  0  0  0  0  0  0  0  0  0  0  0
  -24.2680   -5.8340  -23.6477 C   0  0  0  0  0  0  0  0  0  0  0  0
  -25.9662   -4.1851  -23.1638 C   0  0  0  0  0  0  0  0  0  0  0  0
  -18.2341   -6.1749  -25.5372 C   0  0  0  0  0  0  0  0  0  0  0  0
  -17.5120   -3.9390  -26.0991 C   0  0  0  0  0  0  0  0  0  0  0  0
  -16.1472   -5.3247  -24.6660 C   0  0  0  0  0  0  0  0  0  0  0  0
  -20.9340   -4.6802  -33.6552 C   0  0  0  0  0  0  0  0  0  0  0  0
  -18.4483   -4.9677  -26.2022 C   0  0  0  0  0  0  0  0  0  0  0  0
  -24.1194   -3.6263  -24.6178 C   0  0  0  0  0  0  0  0  0  0  0  0
  -19.5584   -6.5596  -35.1908 C   0  0  0  0  0  0  0  0  0  0  0  0
  -25.4496   -5.4706  -23.0018 C   0  0  0  0  0  0  0  0  0  0  0  0
  -17.0835   -6.3535  -24.7690 C   0  0  0  0  0  0  0  0  0  0  0  0
  -16.3614   -4.1175  -25.3310 C   0  0  0  0  0  0  0  0  0  0  0  0
  -23.2950   -3.3911  -30.9570 C   0  0  0  0  0  0  0  0  0  0  0  0
  -23.0601   -2.9299  -28.5319 C   0  0  0  0  0  0  0  0  0  0  0  0
  -20.7025   -5.6526  -27.2489 C   0  0  0  0  0  0  0  0  0  0  0  0
  -19.9364   -3.8266  -27.9708 C   0  0  0  0  0  0  0  0  0  0  0  0
  -21.8092   -4.7954  -29.4553 C   0  0  0  0  0  0  0  0  0  0  0  0
  -22.5445   -3.7793  -27.3780 C   0  0  1  0  0  0  0  0  0  0  0  0
  -21.3441   -4.4833  -28.0302 C   0  0  0  0  0  0  0  0  0  0  0  0
  -21.6778   -3.6631  -32.8249 C   0  0  0  0  0  0  0  0  0  0  0  0
  -22.2438   -2.9732  -26.1282 C   0  0  0  0  0  0  0  0  0  0  0  0
  -22.8721   -4.2738  -32.1040 C   0  0  2  0  0  0  0  0  0  0  0  0
  -19.6041   -4.7881  -26.9747 N   0  0  0  0  0  0  0  0  0  0  0  0
  -22.7439   -3.7041  -29.7249 N   0  0  0  0  0  0  0  0  0  0  0  0
  -24.0492   -4.3509  -32.9201 N   0  0  0  0  0  0  0  0  0  0  0  0
  -23.4533   -2.7029  -25.4269 N   0  0  0  0  0  0  0  0  0  0  0  0
  -24.0774   -2.4579  -31.1453 O   0  0  0  0  0  0  0  0  0  0  0  0
  -18.8863   -7.4757  -35.9402 O   0  0  0  0  0  0  0  0  0  0  0  0
  -26.0884   -6.3562  -22.2258 F   0  0  0  0  0  0  0  0  0  0  0  0
  -16.8773   -7.5136  -24.1321 F   0  0  0  0  0  0  0  0  0  0  0  0
  -15.4613   -3.1303  -25.2337 F   0  0  0  0  0  0  0  0  0  0  0  0
  -19.5986   -5.2502  -32.0562 H   0  0  0  0  0  0  0  0  0  0  0  0
  -22.1097   -4.3289  -35.4331 H   0  0  0  0  0  0  0  0  0  0  0  0
  -22.6829   -5.2058  -24.9547 H   0  0  0  0  0  0  0  0  0  0  0  0
  -25.7123   -2.2638  -24.0908 H   0  0  0  0  0  0  0  0  0  0  0  0
  -18.3823   -6.9121  -33.4158 H   0  0  0  0  0  0  0  0  0  0  0  0
  -20.8916   -5.9912  -36.7899 H   0  0  0  0  0  0  0  0  0  0  0  0
  -23.8663   -6.8351  -23.5215 H   0  0  0  0  0  0  0  0  0  0  0  0
  -26.8861   -3.9026  -22.6604 H   0  0  0  0  0  0  0  0  0  0  0  0
  -18.9566   -6.9833  -25.6114 H   0  0  0  0  0  0  0  0  0  0  0  0
  -17.6686   -2.9946  -26.6140 H   0  0  0  0  0  0  0  0  0  0  0  0
  -15.2509   -5.4649  -24.0690 H   0  0  0  0  0  0  0  0  0  0  0  0
  -24.1497   -2.8379  -28.4942 H   0  0  0  0  0  0  0  0  0  0  0  0
  -22.6270   -1.9290  -28.5848 H   0  0  0  0  0  0  0  0  0  0  0  0
  -21.2229   -5.9615  -26.3325 H   0  0  0  0  0  0  0  0  0  0  0  0
  -20.4160   -6.5414  -27.8224 H   0  0  0  0  0  0  0  0  0  0  0  0
  -19.3257   -3.9100  -28.8715 H   0  0  0  0  0  0  0  0  0  0  0  0
  -19.9113   -2.8038  -27.5845 H   0  0  0  0  0  0  0  0  0  0  0  0
  -20.9897   -4.7206  -30.1778 H   0  0  0  0  0  0  0  0  0  0  0  0
  -22.3008   -5.7665  -29.5635 H   0  0  0  0  0  0  0  0  0  0  0  0
  -23.3439   -4.5396  -27.1081 H   0  0  0  0  0  0  0  0  0  0  0  0
  -20.9781   -3.2267  -32.0993 H   0  0  0  0  0  0  0  0  0  0  0  0
  -21.9925   -2.8257  -33.4627 H   0  0  0  0  0  0  0  0  0  0  0  0
  -21.5694   -3.5685  -25.5153 H   0  0  0  0  0  0  0  0  0  0  0  0
  -21.7703   -2.0468  -26.4483 H   0  0  0  0  0  0  0  0  0  0  0  0
  -22.6640   -5.2674  -31.7062 H   0  0  0  0  0  0  0  0  0  0  0  0
  -24.7545   -3.7434  -32.5519 H   0  0  0  0  0  0  0  0  0  0  0  0
  -23.8282   -4.0726  -33.8558 H   0  0  0  0  0  0  0  0  0  0  0  0
  -23.8780   -1.7753  -25.5074 H   0  0  0  0  0  0  0  0  0  0  0  0
  -19.2511   -7.5078  -36.8390 H   0  0  0  0  0  0  0  0  0  0  0  0
  1  5  1  0  0  0  0
  1 12  2  0  0  0  0
  2  6  2  0  0  0  0
  2 12  1  0  0  0  0
  3  7  1  0  0  0  0
  3 14  2  0  0  0  0
  4  8  2  0  0  0  0
  4 14  1  0  0  0  0
  5 15  2  0  0  0  0
  6 15  1  0  0  0  0
  7 16  2  0  0  0  0
  8 16  1  0  0  0  0
  9 13  2  0  0  0  0
  9 17  1  0  0  0  0
 10 13  1  0  0  0  0
 10 18  2  0  0  0  0
 11 17  2  0  0  0  0
 11 18  1  0  0  0  0
 12 26  1  0  0  0  0
 13 29  1  0  0  0  0
 14 32  1  0  0  0  0
 15 34  1  0  0  0  0
 16 35  1  0  0  0  0
 17 36  1  0  0  0  0
 18 37  1  0  0  0  0
 19 28  1  0  0  0  0
 19 30  1  0  0  0  0
 19 33  2  0  0  0  0
 20 24  1  0  0  0  0
 20 30  1  0  0  0  0
 21 25  1  0  0  0  0
 21 29  1  0  0  0  0
 22 25  1  0  0  0  0
 22 29  1  0  0  0  0
 23 25  1  0  0  0  0
 23 30  1  0  0  0  0
 24 25  1  0  0  0  0
 24 27  1  0  0  0  0
 26 28  1  0  0  0  0
 27 32  1  0  0  0  0
 28 31  1  0  0  0  0
  1 38  1  0  0  0  0
  2 39  1  0  0  0  0
  3 40  1  0  0  0  0
  4 41  1  0  0  0  0
  5 42  1  0  0  0  0
  6 43  1  0  0  0  0
  7 44  1  0  0  0  0
  8 45  1  0  0  0  0
  9 46  1  0  0  0  0
 10 47  1  0  0  0  0
 11 48  1  0  0  0  0
 20 49  1  0  0  0  0
 20 50  1  0  0  0  0
 21 51  1  0  0  0  0
 21 52  1  0  0  0  0
 22 53  1  0  0  0  0
 22 54  1  0  0  0  0
 23 55  1  0  0  0  0
 23 56  1  0  0  0  0
 24 57  1  0  0  0  0
 26 58  1  0  0  0  0
 26 59  1  0  0  0  0
 27 60  1  0  0  0  0
 27 61  1  0  0  0  0
 28 62  1  0  0  0  0
 31 63  1  0  0  0  0
 31 64  1  0  0  0  0
 32 65  1  0  0  0  0
 34 66  1  0  0  0  0
M  END
> <SMILES>
N[C@@H](Cc1ccc(cc1)O)C(=O)N1CC(CNc2ccc(cc2)F)C2(C1)CN(C2)c1cc(cc(c1)F)F

> <FORMATTED_ID>
H3D-008847

> <MOLFORMULA>
C28H29F3N4O2

> <Exact Mass>
510.22

> <XLogP>
3.26

> <TPSA_NOPS>
81.8

> <s_m_source_file>
ligprep_h3d.sdf

> <i_m_source_file_index>
4996

> <i_lp_mmshare_version>
55123

> <i_f3d_flags>
0

> <s_epik_input>
W2NIXTFbY0hdYyhbT0hdKVtjSF1bY0hdYzFbQ0gyXVtDQEhdKFtOSDJdKUMoPU8pTihbQ0gyXTIpW0NIMl1bQ0BIXShbQ0gyXVtOSF1jM1tjSF1bY0hdYyhGKVtjSF1bY0hdMylDMjRbQ0gyXU4oW0NIMl00KWM1W2NIXWMoRilbY0hdYyhGKVtjSF01

> <s_epik_cmdline>
J2VwaWtfcHl0aG9uJywgJy1waHQnLCAnMC41JywgJy1waCcsICc3LjUnLCAnLXRuJywgJzgnLCAnLW1hJywgJzUwMCcsICctaW1hZScsICc8aW5maWxlLm1hZT4nLCAnLW9tYWUnLCAnPG91dGZpbGUubWFlPic=

> <r_lp_tautomer_probability>
1

> <r_epik_Ionization_Penalty>
0.422705

> <r_epik_Ionization_Penalty_Charging>
0

> <r_epik_Ionization_Penalty_Neutral>
0.422705

> <r_epik_State_Penalty>
0.418901

> <r_epik_Charging_Adjusted_Penalty>
0.418901

> <i_epik_Tot_Q>
0

> <i_epik_Tot_abs_Q>
0

> <s_lp_Force_Field>
S-OPLS

> <r_lp_Energy>
33.3718

> <b_lp_Chiralities_Consistent>
1

> <s_lp_Variant>
ligprep_h3d.sdf:4996-2

> <ROCS_ShapeQuery>
_7L13

> <ROCS_TanimotoCombo>
0.699 

> <ROCS_ShapeTanimoto>
0.637 

> <ROCS_ColorTanimoto>
0.063 

> <ROCS_RefTversky>
0.784 

> <ROCS_RefColorTversky>
0.129 

> <ROCS_RefTverskyCombo>
0.913 

> <ROCS_FitTversky>
0.773 

> <ROCS_FitColorTversky>
0.108 

> <ROCS_FitTverskyCombo>
0.881 

> <ROCS_ColorScore>
-1.178

> <ROCS_Overlap>
1302.173

> <ROCS_Rank>
315                 

$$$$
ligprep_h3d.sdf:726_255
  -OEChem-08212117123D

 61 66  0     1  0  0  0  0  0999 V2000
  -20.7438   -4.8185  -29.5334 C   0  0  0  0  0  0  0  0  0  0  0  0
  -21.6677   -4.2193  -30.3918 C   0  0  0  0  0  0  0  0  0  0  0  0
  -20.9066   -4.6563  -28.1359 C   0  0  0  0  0  0  0  0  0  0  0  0
  -21.9927   -3.9445  -27.5746 C   0  0  0  0  0  0  0  0  0  0  0  0
  -22.7034   -3.4982  -29.8401 C   0  0  0  0  0  0  0  0  0  0  0  0
  -22.9023   -3.3321  -28.4692 C   0  0  0  0  0  0  0  0  0  0  0  0
  -21.8838   -4.1098  -31.7781 C   0  0  0  0  0  0  0  0  0  0  0  0
  -19.0262   -3.2106  -26.1706 C   0  0  0  0  0  0  0  0  0  0  0  0
  -18.8614   -5.5359  -25.0697 C   0  0  0  0  0  0  0  0  0  0  0  0
  -16.8246   -4.2736  -25.7299 C   0  0  0  0  0  0  0  0  0  0  0  0
  -19.8804   -5.2986  -27.2411 C   0  0  0  0  0  0  0  0  0  0  0  0
  -19.1338   -5.1896  -33.9776 C   0  0  0  0  0  0  0  0  0  0  0  0
  -19.8683   -4.0557  -33.2707 C   0  0  0  0  0  0  0  0  0  0  0  0
  -21.2361   -6.0507  -33.2276 C   0  0  0  0  0  0  0  0  0  0  0  0
  -23.2811   -3.1279  -25.6108 C   0  0  0  0  0  0  0  0  0  0  0  0
  -21.1219   -4.3785  -25.2428 C   0  0  2  0  0  0  0  0  0  0  0  0
  -20.2547   -6.1287  -34.3961 C   0  0  2  0  0  0  0  0  0  0  0  0
  -23.5741   -3.5636  -24.1724 C   0  0  1  0  0  0  0  0  0  0  0  0
  -21.1639   -3.4736  -23.9770 C   0  0  2  0  0  0  0  0  0  0  0  0
  -19.7155   -4.5564  -25.8914 C   0  0  0  0  0  0  0  0  0  0  0  0
  -24.2850   -4.9137  -24.0999 C   0  0  0  0  0  0  0  0  0  0  0  0
  -20.1268   -3.7743  -22.9016 C   0  0  0  0  0  0  0  0  0  0  0  0
  -19.1268   -7.5836  -35.8448 C   0  0  0  0  0  0  0  0  0  0  0  0
  -22.9648   -3.3787  -32.0663 N   0  0  0  0  0  0  0  0  0  0  0  0
  -17.6410   -3.2514  -26.1922 N   0  0  0  0  0  0  0  0  0  0  0  0
  -17.4909   -5.3517  -25.1649 N   0  0  0  0  0  0  0  0  0  0  0  0
  -22.1378   -3.8461  -26.1887 N   0  0  3  0  0  0  0  0  0  0  0  0
  -21.0454   -4.7035  -32.6976 N   0  0  0  0  0  0  0  0  0  0  0  0
  -19.6431   -2.1756  -26.4227 O   0  0  0  0  0  0  0  0  0  0  0  0
  -19.3447   -6.4774  -24.4393 O   0  0  0  0  0  0  0  0  0  0  0  0
  -15.5951   -4.2103  -25.7803 O   0  0  0  0  0  0  0  0  0  0  0  0
  -23.4810   -2.9905  -30.8353 O   0  0  0  0  0  0  0  0  0  0  0  0
  -22.4319   -3.6062  -23.3226 O   0  0  0  0  0  0  0  0  0  0  0  0
  -19.7614   -7.4405  -34.5819 O   0  0  0  0  0  0  0  0  0  0  0  0
  -23.8867   -2.5155  -28.0756 F   0  0  0  0  0  0  0  0  0  0  0  0
  -19.9101   -5.3911  -29.9299 H   0  0  0  0  0  0  0  0  0  0  0  0
  -20.1919   -6.3395  -27.0780 H   0  0  0  0  0  0  0  0  0  0  0  0
  -18.9140   -5.3380  -27.7623 H   0  0  0  0  0  0  0  0  0  0  0  0
  -18.6183   -4.8007  -34.8635 H   0  0  0  0  0  0  0  0  0  0  0  0
  -18.4026   -5.6649  -33.3170 H   0  0  0  0  0  0  0  0  0  0  0  0
  -19.2539   -3.6310  -32.4677 H   0  0  0  0  0  0  0  0  0  0  0  0
  -20.1368   -3.2566  -33.9706 H   0  0  0  0  0  0  0  0  0  0  0  0
  -22.2684   -6.1518  -33.5835 H   0  0  0  0  0  0  0  0  0  0  0  0
  -21.0360   -6.8135  -32.4661 H   0  0  0  0  0  0  0  0  0  0  0  0
  -24.1623   -3.3443  -26.2498 H   0  0  0  0  0  0  0  0  0  0  0  0
  -23.2050   -2.0297  -25.6140 H   0  0  0  0  0  0  0  0  0  0  0  0
  -21.4964   -5.3715  -24.9493 H   0  0  0  0  0  0  0  0  0  0  0  0
  -20.7200   -5.7969  -35.3472 H   0  0  0  0  0  0  0  0  0  0  0  0
  -24.3039   -2.8110  -23.7117 H   0  0  0  0  0  0  0  0  0  0  0  0
  -21.0438   -2.4096  -24.2520 H   0  0  0  0  0  0  0  0  0  0  0  0
  -23.6504   -5.6927  -24.5229 H   0  0  0  0  0  0  0  0  0  0  0  0
  -25.2184   -4.8745  -24.6616 H   0  0  0  0  0  0  0  0  0  0  0  0
  -24.5069   -5.1633  -23.0621 H   0  0  0  0  0  0  0  0  0  0  0  0
  -20.2019   -4.8168  -22.5925 H   0  0  0  0  0  0  0  0  0  0  0  0
  -20.2932   -3.1353  -22.0344 H   0  0  0  0  0  0  0  0  0  0  0  0
  -19.1245   -3.5914  -23.2890 H   0  0  0  0  0  0  0  0  0  0  0  0
  -18.7586   -8.6066  -35.9546 H   0  0  0  0  0  0  0  0  0  0  0  0
  -18.2969   -6.8763  -35.9188 H   0  0  0  0  0  0  0  0  0  0  0  0
  -19.8532   -7.3737  -36.6335 H   0  0  0  0  0  0  0  0  0  0  0  0
  -17.1717   -2.4438  -26.5904 H   0  0  0  0  0  0  0  0  0  0  0  0
  -16.9090   -6.0596  -24.7262 H   0  0  0  0  0  0  0  0  0  0  0  0
  1  2  2  0  0  0  0
  1  3  1  0  0  0  0
  2  5  1  0  0  0  0
  2  7  1  0  0  0  0
  3  4  2  0  0  0  0
  3 11  1  0  0  0  0
  4  6  1  0  0  0  0
  4 27  1  0  0  0  0
  5  6  2  0  0  0  0
  5 32  1  0  0  0  0
  6 35  1  0  0  0  0
  7 24  2  0  0  0  0
  7 28  1  0  0  0  0
  8 20  1  0  0  0  0
  8 25  1  0  0  0  0
  8 29  2  0  0  0  0
  9 20  1  0  0  0  0
  9 26  1  0  0  0  0
  9 30  2  0  0  0  0
 10 25  1  0  0  0  0
 10 26  1  0  0  0  0
 10 31  2  0  0  0  0
 11 20  1  0  0  0  0
 12 13  1  0  0  0  0
 12 17  1  0  0  0  0
 13 28  1  0  0  0  0
 14 17  1  0  0  0  0
 14 28  1  0  0  0  0
 15 18  1  0  0  0  0
 15 27  1  0  0  0  0
 16 19  1  0  0  0  0
 16 20  1  0  0  0  0
 16 27  1  0  0  0  0
 17 34  1  0  0  0  0
 18 21  1  0  0  0  0
 18 33  1  0  0  0  0
 19 22  1  0  0  0  0
 19 33  1  0  0  0  0
 23 34  1  0  0  0  0
 24 32  1  0  0  0  0
  1 36  1  0  0  0  0
 11 37  1  0  0  0  0
 11 38  1  0  0  0  0
 12 39  1  0  0  0  0
 12 40  1  0  0  0  0
 13 41  1  0  0  0  0
 13 42  1  0  0  0  0
 14 43  1  0  0  0  0
 14 44  1  0  0  0  0
 15 45  1  0  0  0  0
 15 46  1  0  0  0  0
 16 47  1  0  0  0  0
 17 48  1  0  0  0  0
 18 49  1  0  0  0  0
 19 50  1  0  0  0  0
 21 51  1  0  0  0  0
 21 52  1  0  0  0  0
 21 53  1  0  0  0  0
 22 54  1  0  0  0  0
 22 55  1  0  0  0  0
 22 56  1  0  0  0  0
 23 57  1  0  0  0  0
 23 58  1  0  0  0  0
 23 59  1  0  0  0  0
 25 60  1  0  0  0  0
 26 61  1  0  0  0  0
M  END
> <SMILES>
CO[C@@H]1CCN(C1)c1noc2c(c3c(cc12)CC1([C@H]2[C@H](C)O[C@H](C)CN23)C(=O)NC(=O)NC1=O)F

> <FORMATTED_ID>
H3D-004956

> <MOLFORMULA>
C23H26FN5O6

> <Exact Mass>
487.19

> <XLogP>
0.55

> <TPSA_NOPS>
126.5

> <s_m_source_file>
ligprep_h3d.sdf

> <i_m_source_file_index>
726

> <i_lp_mmshare_version>
55123

> <i_f3d_flags>
0

> <s_epik_input>
W0NIM11PW0NAQEhdMVtDSDJdW0NIMl1OKFtDSDJdMSljMm5vYyhjM0YpYzJbY0hdYyhbQ0gyXTQpYzNOKFtDSDJdW0NAQEhdKFtDSDNdKU9bQ0BIXTVbQ0gzXSlbQ0BIXTVDNDZDKD1PKVtOSF1DKD1PKVtOSF1DNj1P

> <s_epik_cmdline>
J2VwaWtfcHl0aG9uJywgJy1waHQnLCAnMC41JywgJy1waCcsICc3LjUnLCAnLXRuJywgJzgnLCAnLW1hJywgJzUwMCcsICctaW1hZScsICc8aW5maWxlLm1hZT4nLCAnLW9tYWUnLCAnPG91dGZpbGUubWFlPic=

> <r_lp_tautomer_probability>
1

> <r_epik_Ionization_Penalty>
0.36913

> <r_epik_Ionization_Penalty_Charging>
0

> <r_epik_Ionization_Penalty_Neutral>
0.36913

> <r_epik_State_Penalty>
0.366447

> <r_epik_Charging_Adjusted_Penalty>
0.366447

> <i_epik_Tot_Q>
0

> <i_epik_Tot_abs_Q>
0

> <s_lp_Force_Field>
S-OPLS

> <r_lp_Energy>
47.2707

> <b_lp_Chiralities_Consistent>
1

> <s_lp_Variant>
ligprep_h3d.sdf:726-1

> <ROCS_ShapeQuery>
_7L13

> <ROCS_TanimotoCombo>
0.775 

> <ROCS_ShapeTanimoto>
0.646 

> <ROCS_ColorTanimoto>
0.129 

> <ROCS_RefTversky>
0.784 

> <ROCS_RefColorTversky>
0.285 

> <ROCS_RefTverskyCombo>
1.069 

> <ROCS_FitTversky>
0.786 

> <ROCS_FitColorTversky>
0.191 

> <ROCS_FitTverskyCombo>
0.978 

> <ROCS_ColorScore>
-2.639

> <ROCS_Overlap>
1300.881

> <ROCS_Rank>
316                 

$$$$
ligprep_h3d.sdf:4886_1452
  -OEChem-08212117123D

 78 83  0     0  0  0  0  0  0999 V2000
  -19.1091   -7.5325  -36.9218 C   0  0  0  0  0  0  0  0  0  0  0  0
  -18.2556   -6.5031  -36.5249 C   0  0  0  0  0  0  0  0  0  0  0  0
  -20.2527   -7.8171  -36.1756 C   0  0  0  0  0  0  0  0  0  0  0  0
  -22.3476   -5.5447  -25.2629 C   0  0  0  0  0  0  0  0  0  0  0  0
  -21.5007   -3.2952  -25.0185 C   0  0  0  0  0  0  0  0  0  0  0  0
  -18.5457   -5.7584  -35.3817 C   0  0  0  0  0  0  0  0  0  0  0  0
  -20.5428   -7.0724  -35.0324 C   0  0  0  0  0  0  0  0  0  0  0  0
  -23.3843   -5.2506  -24.3774 C   0  0  0  0  0  0  0  0  0  0  0  0
  -22.5375   -3.0011  -24.1330 C   0  0  0  0  0  0  0  0  0  0  0  0
  -23.2147   -2.6544  -31.2867 C   0  0  0  0  0  0  0  0  0  0  0  0
  -21.4965   -4.8477  -30.8742 C   0  0  0  0  0  0  0  0  0  0  0  0
  -21.4057   -4.5670  -25.5835 C   0  0  0  0  0  0  0  0  0  0  0  0
  -22.8306   -3.0244  -30.0018 C   0  0  0  0  0  0  0  0  0  0  0  0
  -19.6893   -6.0430  -34.6354 C   0  0  0  0  0  0  0  0  0  0  0  0
  -21.9780   -4.1126  -29.7987 C   0  0  0  0  0  0  0  0  0  0  0  0
  -22.7353   -3.3877  -32.3715 C   0  0  0  0  0  0  0  0  0  0  0  0
  -21.8816   -4.4774  -32.1657 C   0  0  0  0  0  0  0  0  0  0  0  0
  -23.4793   -3.9788  -23.8124 C   0  0  0  0  0  0  0  0  0  0  0  0
  -20.9282   -5.2784  -27.8627 C   0  0  0  0  0  0  0  0  0  0  0  0
  -22.7518   -0.9057  -28.6374 C   0  0  0  0  0  0  0  0  0  0  0  0
  -24.7563   -2.4356  -28.4837 C   0  0  0  0  0  0  0  0  0  0  0  0
  -19.3497   -6.0774  -26.1637 C   0  0  0  0  0  0  0  0  0  0  0  0
  -19.3453   -3.6682  -26.8204 C   0  0  0  0  0  0  0  0  0  0  0  0
  -22.4739   -3.2589  -27.6729 C   0  0  0  0  0  0  0  0  0  0  0  0
  -23.2150   -0.1868  -27.3752 C   0  0  0  0  0  0  0  0  0  0  0  0
  -25.2046   -1.7065  -27.2221 C   0  0  0  0  0  0  0  0  0  0  0  0
  -18.3420   -5.7149  -25.0734 C   0  0  0  0  0  0  0  0  0  0  0  0
  -18.3805   -3.4271  -25.6648 C   0  0  0  0  0  0  0  0  0  0  0  0
  -20.2598   -4.8913  -26.5642 C   0  0  0  0  0  0  0  0  0  0  0  0
  -23.2317   -2.3689  -28.6987 C   0  0  0  0  0  0  0  0  0  0  0  0
  -25.2391    0.5210  -26.1052 C   0  0  0  0  0  0  0  0  0  0  0  0
  -23.9789   -1.9111  -33.7604 C   0  0  0  0  0  0  0  0  0  0  0  0
  -20.0018   -5.2425  -33.4054 C   0  0  0  0  0  0  0  0  0  0  0  0
  -21.7319   -4.2934  -28.4235 N   0  0  0  0  0  0  0  0  0  0  0  0
  -24.7170   -0.2794  -27.2668 N   0  3  0  0  0  0  0  0  0  0  0  0
  -20.7281   -6.4002  -28.3291 O   0  0  0  0  0  0  0  0  0  0  0  0
  -17.5683   -4.5782  -25.4482 O   0  0  0  0  0  0  0  0  0  0  0  0
  -23.1072   -3.0324  -33.6337 O   0  0  0  0  0  0  0  0  0  0  0  0
  -21.4155   -5.1931  -33.2292 O   0  0  0  0  0  0  0  0  0  0  0  0
  -24.7585   -3.6162  -22.7202 Cl  0  0  0  0  0  0  0  0  0  0  0  0
  -18.8838   -8.1113  -37.8128 H   0  0  0  0  0  0  0  0  0  0  0  0
  -17.3657   -6.2806  -37.1064 H   0  0  0  0  0  0  0  0  0  0  0  0
  -20.9180   -8.6178  -36.4850 H   0  0  0  0  0  0  0  0  0  0  0  0
  -22.2803   -6.5380  -25.6988 H   0  0  0  0  0  0  0  0  0  0  0  0
  -20.7710   -2.5278  -25.2632 H   0  0  0  0  0  0  0  0  0  0  0  0
  -17.8749   -4.9583  -35.0799 H   0  0  0  0  0  0  0  0  0  0  0  0
  -21.4360   -7.3014  -34.4572 H   0  0  0  0  0  0  0  0  0  0  0  0
  -24.1111   -6.0224  -24.1373 H   0  0  0  0  0  0  0  0  0  0  0  0
  -22.5988   -2.0058  -23.7004 H   0  0  0  0  0  0  0  0  0  0  0  0
  -23.8764   -1.8086  -31.4466 H   0  0  0  0  0  0  0  0  0  0  0  0
  -20.8347   -5.6960  -30.7471 H   0  0  0  0  0  0  0  0  0  0  0  0
  -23.1240   -0.3496  -29.5087 H   0  0  0  0  0  0  0  0  0  0  0  0
  -21.6568   -0.8574  -28.6981 H   0  0  0  0  0  0  0  0  0  0  0  0
  -25.0926   -3.4796  -28.4352 H   0  0  0  0  0  0  0  0  0  0  0  0
  -25.2785   -1.9935  -29.3432 H   0  0  0  0  0  0  0  0  0  0  0  0
  -18.8144   -6.4749  -27.0370 H   0  0  0  0  0  0  0  0  0  0  0  0
  -19.9829   -6.8936  -25.7849 H   0  0  0  0  0  0  0  0  0  0  0  0
  -19.9755   -2.7786  -26.9276 H   0  0  0  0  0  0  0  0  0  0  0  0
  -18.7842   -3.7823  -27.7517 H   0  0  0  0  0  0  0  0  0  0  0  0
  -21.7505   -2.6922  -27.0763 H   0  0  0  0  0  0  0  0  0  0  0  0
  -23.1500   -3.7695  -26.9780 H   0  0  0  0  0  0  0  0  0  0  0  0
  -22.7874   -0.6220  -26.4657 H   0  0  0  0  0  0  0  0  0  0  0  0
  -22.9549    0.8759  -27.4241 H   0  0  0  0  0  0  0  0  0  0  0  0
  -26.2980   -1.6773  -27.1673 H   0  0  0  0  0  0  0  0  0  0  0  0
  -24.8090   -2.1664  -26.3103 H   0  0  0  0  0  0  0  0  0  0  0  0
  -18.8752   -5.4633  -24.1487 H   0  0  0  0  0  0  0  0  0  0  0  0
  -17.6746   -6.5561  -24.8427 H   0  0  0  0  0  0  0  0  0  0  0  0
  -17.7432   -2.5582  -25.8478 H   0  0  0  0  0  0  0  0  0  0  0  0
  -18.9421   -3.2398  -24.7473 H   0  0  0  0  0  0  0  0  0  0  0  0
  -24.8352    0.0840  -25.1902 H   0  0  0  0  0  0  0  0  0  0  0  0
  -24.9013    1.5514  -26.2307 H   0  0  0  0  0  0  0  0  0  0  0  0
  -26.3290    0.4606  -26.1209 H   0  0  0  0  0  0  0  0  0  0  0  0
  -24.1966   -1.7354  -34.8167 H   0  0  0  0  0  0  0  0  0  0  0  0
  -23.5047   -1.0287  -33.3234 H   0  0  0  0  0  0  0  0  0  0  0  0
  -24.9098   -2.1228  -33.2291 H   0  0  0  0  0  0  0  0  0  0  0  0
  -19.5468   -5.6947  -32.5176 H   0  0  0  0  0  0  0  0  0  0  0  0
  -19.6156   -4.2218  -33.4986 H   0  0  0  0  0  0  0  0  0  0  0  0
  -25.1108    0.1509  -28.1150 H   0  0  0  0  0  0  0  0  0  0  0  0
  1  2  2  0  0  0  0
  1  3  1  0  0  0  0
  2  6  1  0  0  0  0
  3  7  2  0  0  0  0
  4  8  1  0  0  0  0
  4 12  2  0  0  0  0
  5  9  2  0  0  0  0
  5 12  1  0  0  0  0
  6 14  2  0  0  0  0
  7 14  1  0  0  0  0
  8 18  2  0  0  0  0
  9 18  1  0  0  0  0
 10 13  1  0  0  0  0
 10 16  2  0  0  0  0
 11 15  1  0  0  0  0
 11 17  2  0  0  0  0
 12 29  1  0  0  0  0
 13 15  2  0  0  0  0
 13 30  1  0  0  0  0
 14 33  1  0  0  0  0
 15 34  1  0  0  0  0
 16 17  1  0  0  0  0
 16 38  1  0  0  0  0
 17 39  1  0  0  0  0
 18 40  1  0  0  0  0
 19 29  1  0  0  0  0
 19 34  1  0  0  0  0
 19 36  2  0  0  0  0
 20 25  1  0  0  0  0
 20 30  1  0  0  0  0
 21 26  1  0  0  0  0
 21 30  1  0  0  0  0
 22 27  1  0  0  0  0
 22 29  1  0  0  0  0
 23 28  1  0  0  0  0
 23 29  1  0  0  0  0
 24 30  1  0  0  0  0
 24 34  1  0  0  0  0
 25 35  1  0  0  0  0
 26 35  1  0  0  0  0
 27 37  1  0  0  0  0
 28 37  1  0  0  0  0
 31 35  1  0  0  0  0
 32 38  1  0  0  0  0
 33 39  1  0  0  0  0
  1 41  1  0  0  0  0
  2 42  1  0  0  0  0
  3 43  1  0  0  0  0
  4 44  1  0  0  0  0
  5 45  1  0  0  0  0
  6 46  1  0  0  0  0
  7 47  1  0  0  0  0
  8 48  1  0  0  0  0
  9 49  1  0  0  0  0
 10 50  1  0  0  0  0
 11 51  1  0  0  0  0
 20 52  1  0  0  0  0
 20 53  1  0  0  0  0
 21 54  1  0  0  0  0
 21 55  1  0  0  0  0
 22 56  1  0  0  0  0
 22 57  1  0  0  0  0
 23 58  1  0  0  0  0
 23 59  1  0  0  0  0
 24 60  1  0  0  0  0
 24 61  1  0  0  0  0
 25 62  1  0  0  0  0
 25 63  1  0  0  0  0
 26 64  1  0  0  0  0
 26 65  1  0  0  0  0
 27 66  1  0  0  0  0
 27 67  1  0  0  0  0
 28 68  1  0  0  0  0
 28 69  1  0  0  0  0
 31 70  1  0  0  0  0
 31 71  1  0  0  0  0
 31 72  1  0  0  0  0
 32 73  1  0  0  0  0
 32 74  1  0  0  0  0
 32 75  1  0  0  0  0
 33 76  1  0  0  0  0
 33 77  1  0  0  0  0
 35 78  1  0  0  0  0
M  CHG  1  35   1
M  END
> <SMILES>
COc1cc2c(cc1OCc1ccccc1)N(CC12CCN(C)CC1)C(=O)C1(CCOCC1)c1ccc(cc1)Cl

> <FORMATTED_ID>
H3D-008245

> <MOLFORMULA>
C33H37ClN2O4

> <Exact Mass>
560.24

> <XLogP>
7.56

> <TPSA_NOPS>
51.2

> <s_m_source_file>
ligprep_h3d.sdf

> <i_m_source_file_index>
4886

> <i_lp_mmshare_version>
55123

> <i_f3d_flags>
0

> <s_epik_input>
W2NIXTFbY0hdW2NIXVtjSF1bY0hdYzFbQ0gyXU9jKGMoW2NIXTIpT1tDSDNdKVtjSF1jKGMyQzM0W0NIMl1bQ0gyXU4oW0NIM10pW0NIMl1bQ0gyXTQpTihbQ0gyXTMpQyg9TylDNShbQ0gyXVtDSDJdT1tDSDJdW0NIMl01KWM2W2NIXVtjSF1jKENsKVtjSF1bY0hdNg==

> <s_epik_cmdline>
J2VwaWtfcHl0aG9uJywgJy1waHQnLCAnMC41JywgJy1waCcsICc3LjUnLCAnLXRuJywgJzgnLCAnLW1hJywgJzUwMCcsICctaW1hZScsICc8aW5maWxlLm1hZT4nLCAnLW9tYWUnLCAnPG91dGZpbGUubWFlPic=

> <r_lp_tautomer_probability>
1

> <r_epik_Ionization_Penalty>
0.0108783

> <r_epik_Ionization_Penalty_Charging>
0.0108775

> <r_epik_Ionization_Penalty_Neutral>
7.34872e-07

> <r_epik_State_Penalty>
0.00834197

> <r_epik_Charging_Adjusted_Penalty>
0.0192195

> <i_epik_Tot_Q>
1

> <i_epik_Tot_abs_Q>
1

> <s_lp_Force_Field>
S-OPLS

> <r_lp_Energy>
107.879

> <b_lp_Chiralities_Consistent>
1

> <s_lp_Variant>
ligprep_h3d.sdf:4886-1

> <ROCS_ShapeQuery>
_7L13

> <ROCS_TanimotoCombo>
0.651 

> <ROCS_ShapeTanimoto>
0.600 

> <ROCS_ColorTanimoto>
0.051 

> <ROCS_RefTversky>
0.783 

> <ROCS_RefColorTversky>
0.112 

> <ROCS_RefTverskyCombo>
0.895 

> <ROCS_FitTversky>
0.719 

> <ROCS_FitColorTversky>
0.086 

> <ROCS_FitTverskyCombo>
0.805 

> <ROCS_ColorScore>
-1.022

> <ROCS_Overlap>
1307.557

> <ROCS_Rank>
317                 

$$$$
ligprep_h3d.sdf:5360_399
  -OEChem-08212117123D

 71 75  0     0  0  0  0  0  0999 V2000
  -18.9699   -5.5309  -34.9836 C   0  0  0  0  0  0  0  0  0  0  0  0
  -19.9114   -6.5132  -34.6763 C   0  0  0  0  0  0  0  0  0  0  0  0
  -18.9934   -4.3081  -34.3128 C   0  0  0  0  0  0  0  0  0  0  0  0
  -20.8764   -6.2726  -33.6983 C   0  0  0  0  0  0  0  0  0  0  0  0
  -19.9584   -4.0675  -33.3348 C   0  0  0  0  0  0  0  0  0  0  0  0
  -18.3725   -4.0375  -26.7055 C   0  0  0  0  0  0  0  0  0  0  0  0
  -18.7772   -5.7019  -25.0172 C   0  0  0  0  0  0  0  0  0  0  0  0
  -23.6685   -4.0262  -28.1242 C   0  0  0  0  0  0  0  0  0  0  0  0
  -20.9304   -4.3218  -28.7101 C   0  0  0  0  0  0  0  0  0  0  0  0
  -17.0221   -4.1502  -26.4163 C   0  0  0  0  0  0  0  0  0  0  0  0
  -17.4087   -5.7402  -24.8037 C   0  0  0  0  0  0  0  0  0  0  0  0
  -22.7494   -4.3225  -27.1249 C   0  0  0  0  0  0  0  0  0  0  0  0
  -20.8999   -5.0498  -33.0275 C   0  0  0  0  0  0  0  0  0  0  0  0
  -19.2602   -4.8317  -25.9882 C   0  0  0  0  0  0  0  0  0  0  0  0
  -21.3809   -4.4544  -27.4025 C   0  0  0  0  0  0  0  0  0  0  0  0
  -23.2096   -3.8799  -29.4317 C   0  0  0  0  0  0  0  0  0  0  0  0
  -21.8494   -4.0315  -29.7233 C   0  0  0  0  0  0  0  0  0  0  0  0
  -25.8518   -3.9978  -22.5445 C   0  0  0  0  0  0  0  0  0  0  0  0
  -23.2496   -3.1408  -24.9736 C   0  0  0  0  0  0  0  0  0  0  0  0
  -24.1659   -5.4663  -25.3485 C   0  0  0  0  0  0  0  0  0  0  0  0
  -23.6117   -3.2629  -23.4915 C   0  0  0  0  0  0  0  0  0  0  0  0
  -24.4543   -5.5615  -23.8523 C   0  0  0  0  0  0  0  0  0  0  0  0
  -21.6290   -5.1244  -25.2170 C   0  0  0  0  0  0  0  0  0  0  0  0
  -22.9982   -4.5078  -25.6482 C   0  0  0  0  0  0  0  0  0  0  0  0
  -26.2437   -3.6002  -19.6473 C   0  0  0  0  0  0  0  0  0  0  0  0
  -26.9989   -1.2706  -20.0981 C   0  0  0  0  0  0  0  0  0  0  0  0
  -24.3398   -2.2113  -30.6941 C   0  0  0  0  0  0  0  0  0  0  0  0
  -21.9379   -4.7902  -31.9755 C   0  0  0  0  0  0  0  0  0  0  0  0
  -25.9942   -2.6294  -21.9270 C   0  0  0  0  0  0  0  0  0  0  0  0
  -16.5156   -4.9840  -25.4805 N   0  0  0  0  0  0  0  0  0  0  0  0
  -20.6330   -4.7553  -26.2416 N   0  0  0  0  0  0  0  0  0  0  0  0
  -24.6901   -4.2349  -23.2807 N   0  0  0  0  0  0  0  0  0  0  0  0
  -26.7926   -2.6484  -20.6864 N   0  3  0  0  0  0  0  0  0  0  0  0
  -26.7483   -4.8290  -22.3783 O   0  0  0  0  0  0  0  0  0  0  0  0
  -24.0987   -3.5903  -30.4232 O   0  0  0  0  0  0  0  0  0  0  0  0
  -21.4025   -3.8943  -31.0046 O   0  0  0  0  0  0  0  0  0  0  0  0
  -18.2177   -5.7189  -35.7442 H   0  0  0  0  0  0  0  0  0  0  0  0
  -19.8926   -7.4657  -35.1977 H   0  0  0  0  0  0  0  0  0  0  0  0
  -18.2599   -3.5436  -34.5510 H   0  0  0  0  0  0  0  0  0  0  0  0
  -21.6062   -7.0437  -33.4656 H   0  0  0  0  0  0  0  0  0  0  0  0
  -19.9691   -3.1118  -32.8175 H   0  0  0  0  0  0  0  0  0  0  0  0
  -18.7167   -3.3487  -27.4696 H   0  0  0  0  0  0  0  0  0  0  0  0
  -19.4422   -6.3354  -24.4396 H   0  0  0  0  0  0  0  0  0  0  0  0
  -24.7223   -3.9049  -27.8950 H   0  0  0  0  0  0  0  0  0  0  0  0
  -19.8765   -4.4353  -28.9477 H   0  0  0  0  0  0  0  0  0  0  0  0
  -16.2888   -3.5528  -26.9480 H   0  0  0  0  0  0  0  0  0  0  0  0
  -16.9812   -6.4024  -24.0579 H   0  0  0  0  0  0  0  0  0  0  0  0
  -24.0723   -2.6222  -25.4850 H   0  0  0  0  0  0  0  0  0  0  0  0
  -22.3714   -2.4900  -25.0759 H   0  0  0  0  0  0  0  0  0  0  0  0
  -23.9590   -6.4676  -25.7471 H   0  0  0  0  0  0  0  0  0  0  0  0
  -25.0790   -5.1241  -25.8531 H   0  0  0  0  0  0  0  0  0  0  0  0
  -22.7519   -3.6088  -22.9072 H   0  0  0  0  0  0  0  0  0  0  0  0
  -23.8731   -2.2744  -23.1093 H   0  0  0  0  0  0  0  0  0  0  0  0
  -25.3168   -6.2149  -23.6870 H   0  0  0  0  0  0  0  0  0  0  0  0
  -23.6063   -6.0042  -23.3173 H   0  0  0  0  0  0  0  0  0  0  0  0
  -21.3083   -4.7820  -24.2270 H   0  0  0  0  0  0  0  0  0  0  0  0
  -21.6953   -6.2209  -25.1770 H   0  0  0  0  0  0  0  0  0  0  0  0
  -25.2416   -3.2605  -19.3796 H   0  0  0  0  0  0  0  0  0  0  0  0
  -26.9111   -3.5733  -18.7839 H   0  0  0  0  0  0  0  0  0  0  0  0
  -26.2147   -4.5976  -20.0901 H   0  0  0  0  0  0  0  0  0  0  0  0
  -26.0177   -0.8662  -19.8429 H   0  0  0  0  0  0  0  0  0  0  0  0
  -27.4929   -0.6556  -20.8528 H   0  0  0  0  0  0  0  0  0  0  0  0
  -27.6228   -1.3771  -19.2087 H   0  0  0  0  0  0  0  0  0  0  0  0
  -25.0669   -2.1201  -31.5048 H   0  0  0  0  0  0  0  0  0  0  0  0
  -23.4023   -1.7248  -30.9749 H   0  0  0  0  0  0  0  0  0  0  0  0
  -24.7391   -1.7368  -29.7946 H   0  0  0  0  0  0  0  0  0  0  0  0
  -22.8376   -4.3454  -32.4142 H   0  0  0  0  0  0  0  0  0  0  0  0
  -22.2305   -5.7228  -31.4811 H   0  0  0  0  0  0  0  0  0  0  0  0
  -26.4972   -1.9686  -22.6265 H   0  0  0  0  0  0  0  0  0  0  0  0
  -25.0112   -2.2412  -21.6797 H   0  0  0  0  0  0  0  0  0  0  0  0
  -27.7408   -3.0002  -20.9159 H   0  0  0  0  0  0  0  0  0  0  0  0
  1  2  2  0  0  0  0
  1  3  1  0  0  0  0
  2  4  1  0  0  0  0
  3  5  2  0  0  0  0
  4 13  2  0  0  0  0
  5 13  1  0  0  0  0
  6 10  1  0  0  0  0
  6 14  2  0  0  0  0
  7 11  2  0  0  0  0
  7 14  1  0  0  0  0
  8 12  1  0  0  0  0
  8 16  2  0  0  0  0
  9 15  1  0  0  0  0
  9 17  2  0  0  0  0
 10 30  2  0  0  0  0
 11 30  1  0  0  0  0
 12 15  2  0  0  0  0
 12 24  1  0  0  0  0
 13 28  1  0  0  0  0
 14 31  1  0  0  0  0
 15 31  1  0  0  0  0
 16 17  1  0  0  0  0
 16 35  1  0  0  0  0
 17 36  1  0  0  0  0
 18 29  1  0  0  0  0
 18 32  1  0  0  0  0
 18 34  2  0  0  0  0
 19 21  1  0  0  0  0
 19 24  1  0  0  0  0
 20 22  1  0  0  0  0
 20 24  1  0  0  0  0
 21 32  1  0  0  0  0
 22 32  1  0  0  0  0
 23 24  1  0  0  0  0
 23 31  1  0  0  0  0
 25 33  1  0  0  0  0
 26 33  1  0  0  0  0
 27 35  1  0  0  0  0
 28 36  1  0  0  0  0
 29 33  1  0  0  0  0
  1 37  1  0  0  0  0
  2 38  1  0  0  0  0
  3 39  1  0  0  0  0
  4 40  1  0  0  0  0
  5 41  1  0  0  0  0
  6 42  1  0  0  0  0
  7 43  1  0  0  0  0
  8 44  1  0  0  0  0
  9 45  1  0  0  0  0
 10 46  1  0  0  0  0
 11 47  1  0  0  0  0
 19 48  1  0  0  0  0
 19 49  1  0  0  0  0
 20 50  1  0  0  0  0
 20 51  1  0  0  0  0
 21 52  1  0  0  0  0
 21 53  1  0  0  0  0
 22 54  1  0  0  0  0
 22 55  1  0  0  0  0
 23 56  1  0  0  0  0
 23 57  1  0  0  0  0
 25 58  1  0  0  0  0
 25 59  1  0  0  0  0
 25 60  1  0  0  0  0
 26 61  1  0  0  0  0
 26 62  1  0  0  0  0
 26 63  1  0  0  0  0
 27 64  1  0  0  0  0
 27 65  1  0  0  0  0
 27 66  1  0  0  0  0
 28 67  1  0  0  0  0
 28 68  1  0  0  0  0
 29 69  1  0  0  0  0
 29 70  1  0  0  0  0
 33 71  1  0  0  0  0
M  CHG  1  33   1
M  END
> <SMILES>
COc1cc2c(cc1OCc1ccccc1)N(CC12CCN(CC1)C(=O)CN(C)C)c1ccncc1

> <FORMATTED_ID>
H3D-015063

> <MOLFORMULA>
C29H34N4O3

> <Exact Mass>
486.26

> <XLogP>
4.63

> <TPSA_NOPS>
58.1

> <s_m_source_file>
ligprep_h3d.sdf

> <i_m_source_file_index>
5360

> <i_lp_mmshare_version>
55123

> <i_f3d_flags>
0

> <s_epik_input>
W2NIXTFbY0hdW2NIXVtjSF1bY0hdYzFbQ0gyXU9jKGMoW2NIXTIpT1tDSDNdKVtjSF1jKE4oW0NIMl0zKWM0W2NIXVtjSF1uW2NIXVtjSF00KWMyQzM1W0NIMl1bQ0gyXU4oW0NIMl1bQ0gyXTUpQyg9TylbQ0gyXU4oW0NIM10pW0NIM10=

> <s_epik_cmdline>
J2VwaWtfcHl0aG9uJywgJy1waHQnLCAnMC41JywgJy1waCcsICc3LjUnLCAnLXRuJywgJzgnLCAnLW1hJywgJzUwMCcsICctaW1hZScsICc8aW5maWxlLm1hZT4nLCAnLW9tYWUnLCAnPG91dGZpbGUubWFlPic=

> <r_lp_tautomer_probability>
1

> <r_epik_Ionization_Penalty>
0.261077

> <r_epik_Ionization_Penalty_Charging>
0.106153

> <r_epik_Ionization_Penalty_Neutral>
0.154924

> <r_epik_State_Penalty>
0.240952

> <r_epik_Charging_Adjusted_Penalty>
0.347105

> <i_epik_Tot_Q>
1

> <i_epik_Tot_abs_Q>
1

> <s_lp_Force_Field>
S-OPLS

> <r_lp_Energy>
73.0691

> <b_lp_Chiralities_Consistent>
1

> <s_lp_Variant>
ligprep_h3d.sdf:5360-1

> <ROCS_ShapeQuery>
_7L13

> <ROCS_TanimotoCombo>
0.764 

> <ROCS_ShapeTanimoto>
0.650 

> <ROCS_ColorTanimoto>
0.114 

> <ROCS_RefTversky>
0.783 

> <ROCS_RefColorTversky>
0.226 

> <ROCS_RefTverskyCombo>
1.009 

> <ROCS_FitTversky>
0.792 

> <ROCS_FitColorTversky>
0.188 

> <ROCS_FitTverskyCombo>
0.980 

> <ROCS_ColorScore>
-2.053

> <ROCS_Overlap>
1300.229

> <ROCS_Rank>
318                 

$$$$
ligprep_h3d.sdf:1049_692
  -OEChem-08212117123D

 57 62  0     1  0  0  0  0  0999 V2000
  -20.9434   -5.1243  -29.5028 C   0  0  0  0  0  0  0  0  0  0  0  0
  -21.7250   -4.3750  -30.3847 C   0  0  0  0  0  0  0  0  0  0  0  0
  -21.0661   -4.8846  -28.1130 C   0  0  0  0  0  0  0  0  0  0  0  0
  -21.9786   -3.9429  -27.5811 C   0  0  0  0  0  0  0  0  0  0  0  0
  -22.5874   -3.4362  -29.8622 C   0  0  0  0  0  0  0  0  0  0  0  0
  -22.7445   -3.1862  -28.4988 C   0  0  0  0  0  0  0  0  0  0  0  0
  -21.9167   -4.2693  -31.7748 C   0  0  0  0  0  0  0  0  0  0  0  0
  -18.9005   -3.7481  -26.2335 C   0  0  0  0  0  0  0  0  0  0  0  0
  -19.1840   -5.9648  -25.0056 C   0  0  0  0  0  0  0  0  0  0  0  0
  -17.0241   -5.0489  -25.8225 C   0  0  0  0  0  0  0  0  0  0  0  0
  -20.4145   -4.5885  -33.7807 C   0  0  0  0  0  0  0  0  0  0  0  0
  -20.1987   -5.6944  -27.1871 C   0  0  0  0  0  0  0  0  0  0  0  0
  -23.0793   -2.8299  -25.6490 C   0  0  0  0  0  0  0  0  0  0  0  0
  -21.3969   -6.4723  -32.8639 C   0  0  0  0  0  0  0  0  0  0  0  0
  -21.1876   -4.4476  -25.2348 C   0  0  2  0  0  0  0  0  0  0  0  0
  -23.4429   -3.1553  -24.1973 C   0  0  1  0  0  0  0  0  0  0  0  0
  -20.2951   -6.8725  -33.8197 C   0  0  1  0  0  0  0  0  0  0  0  0
  -21.0565   -3.5068  -24.0011 C   0  0  2  0  0  0  0  0  0  0  0  0
  -19.8493   -4.9209  -25.8916 C   0  0  2  0  0  0  0  0  0  0  0  0
  -24.3973   -4.3426  -24.0830 C   0  0  0  0  0  0  0  0  0  0  0  0
  -20.0852   -3.9490  -22.9140 C   0  0  0  0  0  0  0  0  0  0  0  0
  -20.7215   -7.9264  -34.8241 C   0  0  0  0  0  0  0  0  0  0  0  0
  -22.8224   -3.3392  -32.0924 N   0  0  0  0  0  0  0  0  0  0  0  0
  -17.6294   -4.0643  -26.4879 N   0  5  0  0  0  0  0  0  0  0  0  0
  -17.8053   -5.9158  -25.0606 N   0  0  0  0  0  0  0  0  0  0  0  0
  -22.0949   -3.7700  -26.1996 N   0  0  3  0  0  0  0  0  0  0  0  0
  -21.2339   -5.0479  -32.7534 N   0  0  0  0  0  0  0  0  0  0  0  0
  -19.3388   -2.6065  -26.3728 O   0  0  0  0  0  0  0  0  0  0  0  0
  -19.7984   -6.8165  -24.3672 O   0  0  0  0  0  0  0  0  0  0  0  0
  -15.8054   -5.2372  -25.8672 O   0  0  0  0  0  0  0  0  0  0  0  0
  -20.1165   -3.4414  -34.0826 O   0  0  0  0  0  0  0  0  0  0  0  0
  -23.2442   -2.8115  -30.8777 O   0  0  0  0  0  0  0  0  0  0  0  0
  -19.9535   -5.6616  -34.5081 O   0  0  0  0  0  0  0  0  0  0  0  0
  -22.3257   -3.3892  -23.3446 O   0  0  0  0  0  0  0  0  0  0  0  0
  -19.8329   -7.8890  -35.9275 O   0  0  0  0  0  0  0  0  0  0  0  0
  -23.5085   -1.6507  -28.1766 Cl  0  0  0  0  0  0  0  0  0  0  0  0
  -20.2471   -5.8691  -29.8772 H   0  0  0  0  0  0  0  0  0  0  0  0
  -20.7381   -6.6225  -26.9538 H   0  0  0  0  0  0  0  0  0  0  0  0
  -19.2790   -5.9919  -27.7077 H   0  0  0  0  0  0  0  0  0  0  0  0
  -23.9942   -2.9565  -26.2661 H   0  0  0  0  0  0  0  0  0  0  0  0
  -22.8901   -1.7539  -25.7540 H   0  0  0  0  0  0  0  0  0  0  0  0
  -22.4034   -6.7351  -33.2054 H   0  0  0  0  0  0  0  0  0  0  0  0
  -21.2293   -6.9029  -31.8696 H   0  0  0  0  0  0  0  0  0  0  0  0
  -21.7394   -5.3418  -24.9025 H   0  0  0  0  0  0  0  0  0  0  0  0
  -24.0153   -2.2641  -23.7629 H   0  0  0  0  0  0  0  0  0  0  0  0
  -19.4080   -7.2190  -33.2665 H   0  0  0  0  0  0  0  0  0  0  0  0
  -20.7530   -2.4907  -24.3100 H   0  0  0  0  0  0  0  0  0  0  0  0
  -23.9239   -5.2411  -24.4790 H   0  0  0  0  0  0  0  0  0  0  0  0
  -25.3082   -4.1445  -24.6479 H   0  0  0  0  0  0  0  0  0  0  0  0
  -24.6586   -4.5117  -23.0382 H   0  0  0  0  0  0  0  0  0  0  0  0
  -20.3404   -4.9518  -22.5708 H   0  0  0  0  0  0  0  0  0  0  0  0
  -20.1342   -3.2629  -22.0682 H   0  0  0  0  0  0  0  0  0  0  0  0
  -19.0672   -3.9573  -23.3040 H   0  0  0  0  0  0  0  0  0  0  0  0
  -21.7352   -7.7239  -35.1743 H   0  0  0  0  0  0  0  0  0  0  0  0
  -20.6844   -8.9175  -34.3684 H   0  0  0  0  0  0  0  0  0  0  0  0
  -17.3056   -6.5848  -24.4824 H   0  0  0  0  0  0  0  0  0  0  0  0
  -20.1281   -8.5717  -36.5533 H   0  0  0  0  0  0  0  0  0  0  0  0
  1  2  2  0  0  0  0
  1  3  1  0  0  0  0
  2  5  1  0  0  0  0
  2  7  1  0  0  0  0
  3  4  2  0  0  0  0
  3 12  1  0  0  0  0
  4  6  1  0  0  0  0
  4 26  1  0  0  0  0
  5  6  2  0  0  0  0
  5 32  1  0  0  0  0
  6 36  1  0  0  0  0
  7 23  2  0  0  0  0
  7 27  1  0  0  0  0
  8 19  1  0  0  0  0
  8 24  1  0  0  0  0
  8 28  2  0  0  0  0
  9 19  1  0  0  0  0
  9 25  1  0  0  0  0
  9 29  2  0  0  0  0
 10 24  1  0  0  0  0
 10 25  1  0  0  0  0
 10 30  2  0  0  0  0
 11 27  1  0  0  0  0
 11 31  2  0  0  0  0
 11 33  1  0  0  0  0
 12 19  1  0  0  0  0
 13 16  1  0  0  0  0
 13 26  1  0  0  0  0
 14 17  1  0  0  0  0
 14 27  1  0  0  0  0
 15 18  1  0  0  0  0
 15 19  1  0  0  0  0
 15 26  1  0  0  0  0
 16 20  1  0  0  0  0
 16 34  1  0  0  0  0
 17 22  1  0  0  0  0
 17 33  1  0  0  0  0
 18 21  1  0  0  0  0
 18 34  1  0  0  0  0
 22 35  1  0  0  0  0
 23 32  1  0  0  0  0
  1 37  1  0  0  0  0
 12 38  1  0  0  0  0
 12 39  1  0  0  0  0
 13 40  1  0  0  0  0
 13 41  1  0  0  0  0
 14 42  1  0  0  0  0
 14 43  1  0  0  0  0
 15 44  1  0  0  0  0
 16 45  1  0  0  0  0
 17 46  1  0  0  0  0
 18 47  1  0  0  0  0
 20 48  1  0  0  0  0
 20 49  1  0  0  0  0
 20 50  1  0  0  0  0
 21 51  1  0  0  0  0
 21 52  1  0  0  0  0
 21 53  1  0  0  0  0
 22 54  1  0  0  0  0
 22 55  1  0  0  0  0
 25 56  1  0  0  0  0
 35 57  1  0  0  0  0
M  CHG  1  24  -1
M  END
> <SMILES>
C[C@@H]1CN2[C@H]([C@H](C)O1)C1(Cc3cc4c(noc4c(c32)Cl)N2C[C@@H](CO)OC2=O)C(=O)NC(=O)NC1=O

> <FORMATTED_ID>
H3D-006611

> <MOLFORMULA>
C22H22ClN5O8

> <Exact Mass>
519.12

> <XLogP>
0.02

> <TPSA_NOPS>
163.8

> <s_m_source_file>
ligprep_h3d.sdf

> <i_m_source_file_index>
1049

> <i_lp_mmshare_version>
55123

> <i_f3d_flags>
0

> <s_epik_input>
Tz1DMVtOSF1DKD1PKVtOSF1DKD1PKUMxMltDQEBIXTNOKFtDSDJdW0NAQEhdKFtDSDNdKU9bQ0BIXTNbQ0gzXSljNGMoW0NIMl0yKVtjSF1jNWMoYzRDbClvbmM1TjZbQ0gyXVtDQEBIXShbQ0gyXVtPSF0pT0M2PU8=

> <s_epik_cmdline>
J2VwaWtfcHl0aG9uJywgJy1waHQnLCAnMC41JywgJy1waCcsICc3LjUnLCAnLXRuJywgJzgnLCAnLW1hJywgJzUwMCcsICctaW1hZScsICc8aW5maWxlLm1hZT4nLCAnLW9tYWUnLCAnPG91dGZpbGUubWFlPic=

> <r_lp_tautomer_probability>
1

> <r_epik_Ionization_Penalty>
0.455389

> <r_epik_Ionization_Penalty_Charging>
0.455373

> <r_epik_Ionization_Penalty_Neutral>
1.59103e-05

> <r_epik_State_Penalty>
0.458483

> <r_epik_Charging_Adjusted_Penalty>
0.913857

> <i_epik_Tot_Q>
-1

> <i_epik_Tot_abs_Q>
1

> <s_epik_Chemistry_Notes>
This compound has an ester and may undergo hydrolysis at high or low pH.

> <s_lp_Force_Field>
S-OPLS

> <r_lp_Energy>
52.1554

> <b_lp_Chiralities_Consistent>
1

> <s_lp_Variant>
ligprep_h3d.sdf:1049-2

> <ROCS_ShapeQuery>
_7L13

> <ROCS_TanimotoCombo>
0.751 

> <ROCS_ShapeTanimoto>
0.632 

> <ROCS_ColorTanimoto>
0.119 

> <ROCS_RefTversky>
0.783 

> <ROCS_RefColorTversky>
0.294 

> <ROCS_RefTverskyCombo>
1.078 

> <ROCS_FitTversky>
0.765 

> <ROCS_FitColorTversky>
0.166 

> <ROCS_FitTverskyCombo>
0.932 

> <ROCS_ColorScore>
-2.767

> <ROCS_Overlap>
1302.743

> <ROCS_Rank>
319                 

$$$$
ligprep_h3d.sdf:5326_294
  -OEChem-08212117123D

 64 69  0     0  0  0  0  0  0999 V2000
  -19.9977   -6.0024  -35.6887 C   0  0  0  0  0  0  0  0  0  0  0  0
  -19.9253   -7.1406  -34.8857 C   0  0  0  0  0  0  0  0  0  0  0  0
  -20.0305   -4.7367  -35.1032 C   0  0  0  0  0  0  0  0  0  0  0  0
  -19.8859   -7.0132  -33.4972 C   0  0  0  0  0  0  0  0  0  0  0  0
  -19.9911   -4.6093  -33.7148 C   0  0  0  0  0  0  0  0  0  0  0  0
  -23.1597   -4.2712  -28.4281 C   0  0  0  0  0  0  0  0  0  0  0  0
  -20.3733   -4.6016  -28.6732 C   0  0  0  0  0  0  0  0  0  0  0  0
  -15.0160   -5.5177  -25.0336 C   0  0  0  0  0  0  0  0  0  0  0  0
  -14.8094   -6.7059  -25.6840 C   0  0  0  0  0  0  0  0  0  0  0  0
  -22.3572   -4.4322  -27.3051 C   0  0  0  0  0  0  0  0  0  0  0  0
  -19.9188   -5.7476  -32.9117 C   0  0  0  0  0  0  0  0  0  0  0  0
  -20.9708   -4.5948  -27.4180 C   0  0  0  0  0  0  0  0  0  0  0  0
  -22.5576   -4.2687  -29.6856 C   0  0  0  0  0  0  0  0  0  0  0  0
  -21.1729   -4.4346  -29.8074 C   0  0  0  0  0  0  0  0  0  0  0  0
  -16.9251   -6.1379  -25.9766 C   0  0  0  0  0  0  0  0  0  0  0  0
  -18.3623   -6.0436  -26.3493 C   0  0  0  0  0  0  0  0  0  0  0  0
  -18.3186   -3.9672  -25.0906 C   0  0  0  0  0  0  0  0  0  0  0  0
  -17.0160   -4.0771  -24.7678 C   0  0  0  0  0  0  0  0  0  0  0  0
  -19.0394   -4.9632  -25.9031 C   0  0  0  0  0  0  0  0  0  0  0  0
  -24.7951   -4.7661  -23.7758 C   0  0  0  0  0  0  0  0  0  0  0  0
  -24.0184   -5.9974  -24.1619 C   0  0  0  0  0  0  0  0  0  0  0  0
  -24.1281   -3.4304  -23.9835 C   0  0  0  0  0  0  0  0  0  0  0  0
  -23.5084   -5.8574  -25.5949 C   0  0  0  0  0  0  0  0  0  0  0  0
  -23.6659   -3.3282  -25.4342 C   0  0  0  0  0  0  0  0  0  0  0  0
  -21.3816   -4.4722  -25.1510 C   0  0  0  0  0  0  0  0  0  0  0  0
  -22.7755   -4.5182  -25.8556 C   0  0  0  0  0  0  0  0  0  0  0  0
  -23.5391   -2.7563  -31.2363 C   0  0  0  0  0  0  0  0  0  0  0  0
  -19.8767   -5.6098  -31.4182 C   0  0  0  0  0  0  0  0  0  0  0  0
  -25.9757   -4.8746  -23.2616 N   0  0  0  0  0  0  0  0  0  0  0  0
  -16.3395   -5.1835  -25.2294 N   0  0  0  0  0  0  0  0  0  0  0  0
  -16.0065   -7.0655  -26.2581 N   0  3  0  0  0  0  0  0  0  0  0  0
  -20.3515   -4.7421  -26.1616 N   0  0  0  0  0  0  0  0  0  0  0  0
  -26.4598   -3.5917  -23.0021 O   0  0  0  0  0  0  0  0  0  0  0  0
  -23.3304   -4.0960  -30.7951 O   0  0  0  0  0  0  0  0  0  0  0  0
  -20.5875   -4.4337  -31.0391 O   0  0  0  0  0  0  0  0  0  0  0  0
  -20.0269   -6.1017  -36.7699 H   0  0  0  0  0  0  0  0  0  0  0  0
  -19.8986   -8.1261  -35.3414 H   0  0  0  0  0  0  0  0  0  0  0  0
  -20.0857   -3.8503  -35.7281 H   0  0  0  0  0  0  0  0  0  0  0  0
  -19.8298   -7.9057  -32.8795 H   0  0  0  0  0  0  0  0  0  0  0  0
  -20.0173   -3.6192  -33.2674 H   0  0  0  0  0  0  0  0  0  0  0  0
  -24.2326   -4.1384  -28.3317 H   0  0  0  0  0  0  0  0  0  0  0  0
  -19.3027   -4.7392  -28.7886 H   0  0  0  0  0  0  0  0  0  0  0  0
  -14.3981   -4.8586  -24.4536 H   0  0  0  0  0  0  0  0  0  0  0  0
  -13.9747   -7.3630  -25.8280 H   0  0  0  0  0  0  0  0  0  0  0  0
  -18.8127   -6.8230  -26.9512 H   0  0  0  0  0  0  0  0  0  0  0  0
  -18.8787   -3.1047  -24.7404 H   0  0  0  0  0  0  0  0  0  0  0  0
  -16.4776   -3.3516  -24.1719 H   0  0  0  0  0  0  0  0  0  0  0  0
  -23.1859   -6.1159  -23.4562 H   0  0  0  0  0  0  0  0  0  0  0  0
  -24.6567   -6.8860  -24.0730 H   0  0  0  0  0  0  0  0  0  0  0  0
  -24.8203   -2.6180  -23.7534 H   0  0  0  0  0  0  0  0  0  0  0  0
  -23.2855   -3.3612  -23.2929 H   0  0  0  0  0  0  0  0  0  0  0  0
  -22.8524   -6.7083  -25.8336 H   0  0  0  0  0  0  0  0  0  0  0  0
  -24.3690   -5.9444  -26.2769 H   0  0  0  0  0  0  0  0  0  0  0  0
  -24.5544   -3.2948  -26.0749 H   0  0  0  0  0  0  0  0  0  0  0  0
  -23.1414   -2.3786  -25.5795 H   0  0  0  0  0  0  0  0  0  0  0  0
  -21.1951   -3.5100  -24.6614 H   0  0  0  0  0  0  0  0  0  0  0  0
  -21.3112   -5.2473  -24.3763 H   0  0  0  0  0  0  0  0  0  0  0  0
  -24.1710   -2.7598  -32.1278 H   0  0  0  0  0  0  0  0  0  0  0  0
  -22.5758   -2.2915  -31.4613 H   0  0  0  0  0  0  0  0  0  0  0  0
  -24.0361   -2.1939  -30.4424 H   0  0  0  0  0  0  0  0  0  0  0  0
  -20.3361   -6.4771  -30.9317 H   0  0  0  0  0  0  0  0  0  0  0  0
  -18.8427   -5.5343  -31.0648 H   0  0  0  0  0  0  0  0  0  0  0  0
  -16.1666   -7.9045  -26.8089 H   0  0  0  0  0  0  0  0  0  0  0  0
  -27.3344   -3.7881  -22.6254 H   0  0  0  0  0  0  0  0  0  0  0  0
  1  2  2  0  0  0  0
  1  3  1  0  0  0  0
  2  4  1  0  0  0  0
  3  5  2  0  0  0  0
  4 11  2  0  0  0  0
  5 11  1  0  0  0  0
  6 10  1  0  0  0  0
  6 13  2  0  0  0  0
  7 12  1  0  0  0  0
  7 14  2  0  0  0  0
  8  9  2  0  0  0  0
  8 30  1  0  0  0  0
  9 31  1  0  0  0  0
 10 12  2  0  0  0  0
 10 26  1  0  0  0  0
 11 28  1  0  0  0  0
 12 32  1  0  0  0  0
 13 14  1  0  0  0  0
 13 34  1  0  0  0  0
 14 35  1  0  0  0  0
 15 16  1  0  0  0  0
 15 30  1  0  0  0  0
 15 31  2  0  0  0  0
 16 19  2  0  0  0  0
 17 18  2  0  0  0  0
 17 19  1  0  0  0  0
 18 30  1  0  0  0  0
 19 32  1  0  0  0  0
 20 21  1  0  0  0  0
 20 22  1  0  0  0  0
 20 29  2  0  0  0  0
 21 23  1  0  0  0  0
 22 24  1  0  0  0  0
 23 26  1  0  0  0  0
 24 26  1  0  0  0  0
 25 26  1  0  0  0  0
 25 32  1  0  0  0  0
 27 34  1  0  0  0  0
 28 35  1  0  0  0  0
 29 33  1  0  0  0  0
  1 36  1  0  0  0  0
  2 37  1  0  0  0  0
  3 38  1  0  0  0  0
  4 39  1  0  0  0  0
  5 40  1  0  0  0  0
  6 41  1  0  0  0  0
  7 42  1  0  0  0  0
  8 43  1  0  0  0  0
  9 44  1  0  0  0  0
 16 45  1  0  0  0  0
 17 46  1  0  0  0  0
 18 47  1  0  0  0  0
 21 48  1  0  0  0  0
 21 49  1  0  0  0  0
 22 50  1  0  0  0  0
 22 51  1  0  0  0  0
 23 52  1  0  0  0  0
 23 53  1  0  0  0  0
 24 54  1  0  0  0  0
 24 55  1  0  0  0  0
 25 56  1  0  0  0  0
 25 57  1  0  0  0  0
 27 58  1  0  0  0  0
 27 59  1  0  0  0  0
 27 60  1  0  0  0  0
 28 61  1  0  0  0  0
 28 62  1  0  0  0  0
 31 63  1  0  0  0  0
 33 64  1  0  0  0  0
M  CHG  1  31   1
M  END
> <SMILES>
COc1cc2c(cc1OCc1ccccc1)N(CC12CCC(=NO)CC1)c1ccn2ccnc2c1

> <FORMATTED_ID>
H3D-014894

> <MOLFORMULA>
C28H28N4O3

> <Exact Mass>
468.22

> <XLogP>
6.71

> <TPSA_NOPS>
71.6

> <s_m_source_file>
ligprep_h3d.sdf

> <i_m_source_file_index>
5326

> <i_lp_mmshare_version>
55123

> <i_f3d_flags>
0

> <s_epik_input>
W2NIXTFbY0hdW2NIXVtjSF1bY0hdYzFbQ0gyXU9jKGMoW2NIXTIpT1tDSDNdKVtjSF1jKGMyW0NAQF0zNFtDSDJdW0NIMl1DKD1OW09IXSlbQ0gyXVtDSDJdNClOKFtDSDJdMyljKFtjSF1bY0hdNSlbY0hdYyhuNTYpbltjSF1bY0hdNg==

> <s_epik_cmdline>
J2VwaWtfcHl0aG9uJywgJy1waHQnLCAnMC41JywgJy1waCcsICc3LjUnLCAnLXRuJywgJzgnLCAnLW1hJywgJzUwMCcsICctaW1hZScsICc8aW5maWxlLm1hZT4nLCAnLW9tYWUnLCAnPG91dGZpbGUubWFlPic=

> <r_lp_tautomer_probability>
1

> <r_epik_Ionization_Penalty>
0.331351

> <r_epik_Ionization_Penalty_Charging>
0

> <r_epik_Ionization_Penalty_Neutral>
0.331351

> <r_epik_State_Penalty>
0.326462

> <r_epik_Charging_Adjusted_Penalty>
0.326462

> <i_epik_Tot_Q>
1

> <i_epik_Tot_abs_Q>
1

> <s_epik_Chemistry_Notes>
This compound has an imine and may undergo hydrolysis.

> <s_lp_Force_Field>
S-OPLS

> <r_lp_Energy>
69.6719

> <b_lp_Chiralities_Consistent>
1

> <s_lp_Variant>
ligprep_h3d.sdf:5326-1

> <ROCS_ShapeQuery>
_7L13

> <ROCS_TanimotoCombo>
0.720 

> <ROCS_ShapeTanimoto>
0.651 

> <ROCS_ColorTanimoto>
0.069 

> <ROCS_RefTversky>
0.783 

> <ROCS_RefColorTversky>
0.143 

> <ROCS_RefTverskyCombo>
0.926 

> <ROCS_FitTversky>
0.794 

> <ROCS_FitColorTversky>
0.119 

> <ROCS_FitTverskyCombo>
0.912 

> <ROCS_ColorScore>
-1.297

> <ROCS_Overlap>
1300.064

> <ROCS_Rank>
320                 

$$$$
ligprep_h3d.sdf:3025_1654
  -OEChem-08212117123D

 61 65  0     0  0  0  0  0  0999 V2000
  -23.7743   -3.0170  -30.9130 C   0  0  0  0  0  0  0  0  0  0  0  0
  -23.3041   -4.2656  -23.3140 C   0  0  0  0  0  0  0  0  0  0  0  0
  -23.9144   -5.1015  -25.4970 C   0  0  0  0  0  0  0  0  0  0  0  0
  -23.0524   -3.2550  -29.7435 C   0  0  0  0  0  0  0  0  0  0  0  0
  -23.2862   -3.4706  -32.1384 C   0  0  0  0  0  0  0  0  0  0  0  0
  -24.6505   -4.2298  -22.9512 C   0  0  0  0  0  0  0  0  0  0  0  0
  -25.2608   -5.0657  -25.1343 C   0  0  0  0  0  0  0  0  0  0  0  0
  -21.3542   -4.4001  -31.0248 C   0  0  0  0  0  0  0  0  0  0  0  0
  -20.4283   -4.9410  -24.1819 C   0  0  0  0  0  0  0  0  0  0  0  0
  -22.9361   -4.7014  -24.5869 C   0  0  0  0  0  0  0  0  0  0  0  0
  -21.8423   -3.9465  -29.7994 C   0  0  0  0  0  0  0  0  0  0  0  0
  -22.0762   -4.1621  -32.1944 C   0  0  0  0  0  0  0  0  0  0  0  0
  -25.6288   -4.6299  -23.8614 C   0  0  0  0  0  0  0  0  0  0  0  0
  -21.5422   -4.7388  -24.9621 C   0  0  0  0  0  0  0  0  0  0  0  0
  -19.6814   -4.6778  -26.1665 C   0  0  0  0  0  0  0  0  0  0  0  0
  -18.9612   -4.5356  -27.3856 C   0  0  0  0  0  0  0  0  0  0  0  0
  -19.6281   -4.3068  -28.5327 C   0  0  0  0  0  0  0  0  0  0  0  0
  -21.7654   -4.3325  -27.4177 C   0  0  0  0  0  0  0  0  0  0  0  0
  -21.0905   -4.1943  -28.5790 C   0  0  0  0  0  0  0  0  0  0  0  0
  -21.5574   -4.6444  -33.5002 C   0  0  0  0  0  0  0  0  0  0  0  0
  -17.9182   -7.8070  -35.9519 C   0  0  0  0  0  0  0  0  0  0  0  0
  -18.0719   -6.2982  -36.1212 C   0  0  0  0  0  0  0  0  0  0  0  0
  -19.2573   -8.4811  -35.6671 C   0  0  0  0  0  0  0  0  0  0  0  0
  -18.7747   -5.6651  -34.9215 C   0  0  0  0  0  0  0  0  0  0  0  0
  -19.9610   -7.8510  -34.4664 C   0  0  0  0  0  0  0  0  0  0  0  0
  -20.1241   -6.3377  -34.6461 C   0  0  0  0  0  0  0  0  0  0  0  0
  -27.8555   -2.9579  -23.8793 C   0  0  0  0  0  0  0  0  0  0  0  0
  -19.2805   -4.9021  -24.9319 N   0  0  0  0  0  0  0  0  0  0  0  0
  -21.0653   -4.5689  -26.2370 N   0  0  0  0  0  0  0  0  0  0  0  0
  -20.7330   -5.7582  -33.4503 N   0  0  0  0  0  0  0  0  0  0  0  0
  -21.8583   -4.0393  -34.5258 O   0  0  0  0  0  0  0  0  0  0  0  0
  -28.0267   -5.5504  -24.2325 O   0  0  0  0  0  0  0  0  0  0  0  0
  -27.4143   -4.6613  -21.9564 O   0  0  0  0  0  0  0  0  0  0  0  0
  -27.3138   -4.5851  -23.4076 S   0  0  0  0  0  0  0  0  0  0  0  0
  -24.7164   -2.4779  -30.8692 H   0  0  0  0  0  0  0  0  0  0  0  0
  -22.5532   -3.9506  -22.5934 H   0  0  0  0  0  0  0  0  0  0  0  0
  -23.6434   -5.4439  -26.4930 H   0  0  0  0  0  0  0  0  0  0  0  0
  -23.4459   -2.8955  -28.7956 H   0  0  0  0  0  0  0  0  0  0  0  0
  -23.8569   -3.2800  -33.0439 H   0  0  0  0  0  0  0  0  0  0  0  0
  -24.9263   -3.8886  -21.9570 H   0  0  0  0  0  0  0  0  0  0  0  0
  -26.0150   -5.3796  -25.8511 H   0  0  0  0  0  0  0  0  0  0  0  0
  -20.4105   -4.9396  -31.0736 H   0  0  0  0  0  0  0  0  0  0  0  0
  -20.3896   -5.1134  -23.1155 H   0  0  0  0  0  0  0  0  0  0  0  0
  -17.8798   -4.6142  -27.3775 H   0  0  0  0  0  0  0  0  0  0  0  0
  -19.0828   -4.1982  -29.4654 H   0  0  0  0  0  0  0  0  0  0  0  0
  -22.8464   -4.2661  -27.3553 H   0  0  0  0  0  0  0  0  0  0  0  0
  -17.4744   -8.2363  -36.8572 H   0  0  0  0  0  0  0  0  0  0  0  0
  -17.2245   -8.0122  -35.1273 H   0  0  0  0  0  0  0  0  0  0  0  0
  -17.0854   -5.8399  -36.2540 H   0  0  0  0  0  0  0  0  0  0  0  0
  -18.6468   -6.0897  -37.0320 H   0  0  0  0  0  0  0  0  0  0  0  0
  -19.9020   -8.4003  -36.5510 H   0  0  0  0  0  0  0  0  0  0  0  0
  -19.1001   -9.5498  -35.4828 H   0  0  0  0  0  0  0  0  0  0  0  0
  -18.1263   -5.7500  -34.0398 H   0  0  0  0  0  0  0  0  0  0  0  0
  -18.9192   -4.5952  -35.1137 H   0  0  0  0  0  0  0  0  0  0  0  0
  -20.9424   -8.3232  -34.3370 H   0  0  0  0  0  0  0  0  0  0  0  0
  -19.3798   -8.0606  -33.5591 H   0  0  0  0  0  0  0  0  0  0  0  0
  -20.8117   -6.1343  -35.4617 H   0  0  0  0  0  0  0  0  0  0  0  0
  -28.9113   -2.8584  -23.6223 H   0  0  0  0  0  0  0  0  0  0  0  0
  -27.2586   -2.2249  -23.3345 H   0  0  0  0  0  0  0  0  0  0  0  0
  -27.7114   -2.8455  -24.9549 H   0  0  0  0  0  0  0  0  0  0  0  0
  -20.4785   -6.1674  -32.5565 H   0  0  0  0  0  0  0  0  0  0  0  0
  1  4  1  0  0  0  0
  1  5  2  0  0  0  0
  2  6  1  0  0  0  0
  2 10  2  0  0  0  0
  3  7  2  0  0  0  0
  3 10  1  0  0  0  0
  4 11  2  0  0  0  0
  5 12  1  0  0  0  0
  6 13  2  0  0  0  0
  7 13  1  0  0  0  0
  8 11  1  0  0  0  0
  8 12  2  0  0  0  0
  9 14  2  0  0  0  0
  9 28  1  0  0  0  0
 10 14  1  0  0  0  0
 11 19  1  0  0  0  0
 12 20  1  0  0  0  0
 13 34  1  0  0  0  0
 14 29  1  0  0  0  0
 15 16  1  0  0  0  0
 15 28  2  0  0  0  0
 15 29  1  0  0  0  0
 16 17  2  0  0  0  0
 17 19  1  0  0  0  0
 18 19  2  0  0  0  0
 18 29  1  0  0  0  0
 20 30  1  0  0  0  0
 20 31  2  0  0  0  0
 21 22  1  0  0  0  0
 21 23  1  0  0  0  0
 22 24  1  0  0  0  0
 23 25  1  0  0  0  0
 24 26  1  0  0  0  0
 25 26  1  0  0  0  0
 26 30  1  0  0  0  0
 27 34  1  0  0  0  0
 32 34  2  0  0  0  0
 33 34  2  0  0  0  0
  1 35  1  0  0  0  0
  2 36  1  0  0  0  0
  3 37  1  0  0  0  0
  4 38  1  0  0  0  0
  5 39  1  0  0  0  0
  6 40  1  0  0  0  0
  7 41  1  0  0  0  0
  8 42  1  0  0  0  0
  9 43  1  0  0  0  0
 16 44  1  0  0  0  0
 17 45  1  0  0  0  0
 18 46  1  0  0  0  0
 21 47  1  0  0  0  0
 21 48  1  0  0  0  0
 22 49  1  0  0  0  0
 22 50  1  0  0  0  0
 23 51  1  0  0  0  0
 23 52  1  0  0  0  0
 24 53  1  0  0  0  0
 24 54  1  0  0  0  0
 25 55  1  0  0  0  0
 25 56  1  0  0  0  0
 26 57  1  0  0  0  0
 27 58  1  0  0  0  0
 27 59  1  0  0  0  0
 27 60  1  0  0  0  0
 30 61  1  0  0  0  0
M  END
> <SMILES>
CS(=O)(=O)c1ccc(cc1)-c1cnc2ccc(cn12)-c1cccc(c1)C(=O)NC1CCCCC1

> <FORMATTED_ID>
H3D-015213

> <MOLFORMULA>
C27H27N3O3S

> <Exact Mass>
473.18

> <XLogP>
6.06

> <TPSA_NOPS>
88.9

> <s_m_source_file>
ligprep_h3d.sdf

> <i_m_source_file_index>
3025

> <i_lp_mmshare_version>
55123

> <i_f3d_flags>
0

> <s_epik_input>
W0NIM11TKD1PKSg9TyljMVtjSF1bY0hdYyhbY0hdW2NIXTEpLWMoW2NIXW4yKW4oYzIzKVtjSF1jKFtjSF1bY0hdMyktYzRbY0hdW2NIXVtjSF1jKFtjSF00KUMoPU8pW05IXVtDSF01W0NIMl1bQ0gyXVtDSDJdW0NIMl1bQ0gyXTU=

> <s_epik_cmdline>
J2VwaWtfcHl0aG9uJywgJy1waHQnLCAnMC41JywgJy1waCcsICc3LjUnLCAnLXRuJywgJzgnLCAnLW1hJywgJzUwMCcsICctaW1hZScsICc8aW5maWxlLm1hZT4nLCAnLW9tYWUnLCAnPG91dGZpbGUubWFlPic=

> <r_epik_Ionization_Penalty>
0.016343

> <r_epik_Ionization_Penalty_Charging>
0.0163426

> <r_epik_Ionization_Penalty_Neutral>
4.44725e-07

> <r_epik_State_Penalty>
0.0128941

> <r_epik_Charging_Adjusted_Penalty>
0.0292366

> <i_epik_Tot_Q>
0

> <i_epik_Tot_abs_Q>
0

> <s_lp_Force_Field>
S-OPLS

> <r_lp_Energy>
46.0929

> <b_lp_Chiralities_Consistent>
1

> <s_lp_Variant>
ligprep_h3d.sdf:3025-1

> <ROCS_ShapeQuery>
_7L13

> <ROCS_TanimotoCombo>
0.846 

> <ROCS_ShapeTanimoto>
0.680 

> <ROCS_ColorTanimoto>
0.166 

> <ROCS_RefTversky>
0.783 

> <ROCS_RefColorTversky>
0.299 

> <ROCS_RefTverskyCombo>
1.083 

> <ROCS_FitTversky>
0.837 

> <ROCS_FitColorTversky>
0.272 

> <ROCS_FitTverskyCombo>
1.109 

> <ROCS_ColorScore>
-2.709

> <ROCS_Overlap>
1296.006

> <ROCS_Rank>
321                 

$$$$
ligprep_h3d.sdf:5039_1411
  -OEChem-08212117123D

 62 66  0     1  0  0  0  0  0999 V2000
  -19.8152   -4.7963  -33.3659 C   0  0  0  0  0  0  0  0  0  0  0  0
  -22.1005   -5.5532  -33.5698 C   0  0  0  0  0  0  0  0  0  0  0  0
  -23.4330   -3.9024  -24.2819 C   0  0  0  0  0  0  0  0  0  0  0  0
  -25.0481   -5.6404  -24.7376 C   0  0  0  0  0  0  0  0  0  0  0  0
  -19.3713   -5.9754  -33.9644 C   0  0  0  0  0  0  0  0  0  0  0  0
  -21.6566   -6.7323  -34.1683 C   0  0  0  0  0  0  0  0  0  0  0  0
  -24.1870   -3.4897  -23.1834 C   0  0  0  0  0  0  0  0  0  0  0  0
  -25.8021   -5.2278  -23.6391 C   0  0  0  0  0  0  0  0  0  0  0  0
  -16.8691   -5.9365  -26.2451 C   0  0  0  0  0  0  0  0  0  0  0  0
  -17.2923   -3.6250  -25.6842 C   0  0  0  0  0  0  0  0  0  0  0  0
  -15.4978   -4.8228  -24.5970 C   0  0  0  0  0  0  0  0  0  0  0  0
  -21.1799   -4.5852  -33.1685 C   0  0  0  0  0  0  0  0  0  0  0  0
  -17.6083   -4.7668  -26.4205 C   0  0  0  0  0  0  0  0  0  0  0  0
  -23.8636   -4.9777  -25.0591 C   0  0  0  0  0  0  0  0  0  0  0  0
  -20.2919   -6.9434  -34.3656 C   0  0  0  0  0  0  0  0  0  0  0  0
  -25.3716   -4.1524  -22.8619 C   0  0  0  0  0  0  0  0  0  0  0  0
  -15.8138   -5.9646  -25.3333 C   0  0  0  0  0  0  0  0  0  0  0  0
  -16.2370   -3.6530  -24.7724 C   0  0  0  0  0  0  0  0  0  0  0  0
  -21.3535   -2.1733  -33.1394 C   0  0  0  0  0  0  0  0  0  0  0  0
  -21.6501   -3.3363  -32.5345 C   0  0  0  0  0  0  0  0  0  0  0  0
  -22.4301   -3.3436  -31.2809 C   0  0  0  0  0  0  0  0  0  0  0  0
  -22.5143   -3.9682  -28.8918 C   0  0  0  0  0  0  0  0  0  0  0  0
  -19.1976   -5.7372  -28.2035 C   0  0  0  0  0  0  0  0  0  0  0  0
  -19.3757   -3.6550  -27.9322 C   0  0  0  0  0  0  0  0  0  0  0  0
  -20.4802   -4.4906  -30.1088 C   0  0  0  0  0  0  0  0  0  0  0  0
  -21.7061   -4.9601  -28.0669 C   0  0  1  0  0  0  0  0  0  0  0  0
  -20.2883   -4.7183  -28.6062 C   0  0  0  0  0  0  0  0  0  0  0  0
  -21.8882   -4.7835  -26.5709 C   0  0  0  0  0  0  0  0  0  0  0  0
  -18.6684   -4.7380  -27.3371 N   0  0  0  0  0  0  0  0  0  0  0  0
  -21.8227   -3.9091  -30.1736 N   0  0  0  0  0  0  0  0  0  0  0  0
  -23.1085   -5.3909  -26.1592 N   0  0  0  0  0  0  0  0  0  0  0  0
  -23.5615   -2.8592  -31.2863 O   0  0  0  0  0  0  0  0  0  0  0  0
  -19.8587   -8.0940  -34.9497 O   0  0  0  0  0  0  0  0  0  0  0  0
  -26.0957   -3.7562  -21.8070 F   0  0  0  0  0  0  0  0  0  0  0  0
  -15.1030   -7.0876  -25.1665 F   0  0  0  0  0  0  0  0  0  0  0  0
  -15.9323   -2.5560  -24.0668 F   0  0  0  0  0  0  0  0  0  0  0  0
  -19.0854   -4.0511  -33.0585 H   0  0  0  0  0  0  0  0  0  0  0  0
  -23.1674   -5.4031  -33.4227 H   0  0  0  0  0  0  0  0  0  0  0  0
  -22.5114   -3.3790  -24.5232 H   0  0  0  0  0  0  0  0  0  0  0  0
  -25.3931   -6.4794  -25.3365 H   0  0  0  0  0  0  0  0  0  0  0  0
  -18.3070   -6.1342  -34.1155 H   0  0  0  0  0  0  0  0  0  0  0  0
  -22.3785   -7.4828  -34.4788 H   0  0  0  0  0  0  0  0  0  0  0  0
  -23.8520   -2.6527  -22.5779 H   0  0  0  0  0  0  0  0  0  0  0  0
  -26.7246   -5.7432  -23.3885 H   0  0  0  0  0  0  0  0  0  0  0  0
  -17.1062   -6.8315  -26.8142 H   0  0  0  0  0  0  0  0  0  0  0  0
  -17.8612   -2.7080  -25.8138 H   0  0  0  0  0  0  0  0  0  0  0  0
  -14.6751   -4.8449  -23.8884 H   0  0  0  0  0  0  0  0  0  0  0  0
  -21.6658   -1.2160  -32.7319 H   0  0  0  0  0  0  0  0  0  0  0  0
  -20.7831   -2.1414  -34.0632 H   0  0  0  0  0  0  0  0  0  0  0  0
  -23.5186   -4.3533  -29.0920 H   0  0  0  0  0  0  0  0  0  0  0  0
  -22.6035   -2.9763  -28.4443 H   0  0  0  0  0  0  0  0  0  0  0  0
  -19.5445   -6.6204  -27.6507 H   0  0  0  0  0  0  0  0  0  0  0  0
  -18.4908   -6.0486  -28.9810 H   0  0  0  0  0  0  0  0  0  0  0  0
  -18.7587   -3.0530  -28.6013 H   0  0  0  0  0  0  0  0  0  0  0  0
  -19.8650   -3.0206  -27.1879 H   0  0  0  0  0  0  0  0  0  0  0  0
  -19.7748   -3.7516  -30.5040 H   0  0  0  0  0  0  0  0  0  0  0  0
  -20.4253   -5.4061  -30.7056 H   0  0  0  0  0  0  0  0  0  0  0  0
  -22.0507   -6.0098  -28.3302 H   0  0  0  0  0  0  0  0  0  0  0  0
  -21.0389   -5.2599  -26.0844 H   0  0  0  0  0  0  0  0  0  0  0  0
  -21.9059   -3.7133  -26.3724 H   0  0  0  0  0  0  0  0  0  0  0  0
  -23.4740   -6.1840  -26.6929 H   0  0  0  0  0  0  0  0  0  0  0  0
  -20.6128   -8.6635  -35.1708 H   0  0  0  0  0  0  0  0  0  0  0  0
  1  5  1  0  0  0  0
  1 12  2  0  0  0  0
  2  6  2  0  0  0  0
  2 12  1  0  0  0  0
  3  7  1  0  0  0  0
  3 14  2  0  0  0  0
  4  8  2  0  0  0  0
  4 14  1  0  0  0  0
  5 15  2  0  0  0  0
  6 15  1  0  0  0  0
  7 16  2  0  0  0  0
  8 16  1  0  0  0  0
  9 13  2  0  0  0  0
  9 17  1  0  0  0  0
 10 13  1  0  0  0  0
 10 18  2  0  0  0  0
 11 17  2  0  0  0  0
 11 18  1  0  0  0  0
 12 20  1  0  0  0  0
 13 29  1  0  0  0  0
 14 31  1  0  0  0  0
 15 33  1  0  0  0  0
 16 34  1  0  0  0  0
 17 35  1  0  0  0  0
 18 36  1  0  0  0  0
 19 20  2  0  0  0  0
 20 21  1  0  0  0  0
 21 30  1  0  0  0  0
 21 32  2  0  0  0  0
 22 26  1  0  0  0  0
 22 30  1  0  0  0  0
 23 27  1  0  0  0  0
 23 29  1  0  0  0  0
 24 27  1  0  0  0  0
 24 29  1  0  0  0  0
 25 27  1  0  0  0  0
 25 30  1  0  0  0  0
 26 27  1  0  0  0  0
 26 28  1  0  0  0  0
 28 31  1  0  0  0  0
  1 37  1  0  0  0  0
  2 38  1  0  0  0  0
  3 39  1  0  0  0  0
  4 40  1  0  0  0  0
  5 41  1  0  0  0  0
  6 42  1  0  0  0  0
  7 43  1  0  0  0  0
  8 44  1  0  0  0  0
  9 45  1  0  0  0  0
 10 46  1  0  0  0  0
 11 47  1  0  0  0  0
 19 48  1  0  0  0  0
 19 49  1  0  0  0  0
 22 50  1  0  0  0  0
 22 51  1  0  0  0  0
 23 52  1  0  0  0  0
 23 53  1  0  0  0  0
 24 54  1  0  0  0  0
 24 55  1  0  0  0  0
 25 56  1  0  0  0  0
 25 57  1  0  0  0  0
 26 58  1  0  0  0  0
 28 59  1  0  0  0  0
 28 60  1  0  0  0  0
 31 61  1  0  0  0  0
 33 62  1  0  0  0  0
M  END
> <SMILES>
Oc1ccc(cc1)C(=C)C(=O)N1CC(CNc2ccc(cc2)F)C2(C1)CN(C2)c1cc(cc(c1)F)F

> <FORMATTED_ID>
H3D-009287

> <MOLFORMULA>
C28H26F3N3O2

> <Exact Mass>
493.2

> <XLogP>
4.61

> <TPSA_NOPS>
55.8

> <s_m_source_file>
ligprep_h3d.sdf

> <i_m_source_file_index>
5039

> <i_lp_mmshare_version>
55123

> <i_f3d_flags>
0

> <s_epik_input>
W09IXWMxW2NIXVtjSF1jKFtjSF1bY0hdMSlDKD1bQ0gyXSlDKD1PKU4oW0NIMl0yKVtDSDJdW0NASF0oW0NIMl1bTkhdYzNbY0hdW2NIXWMoRilbY0hdW2NIXTMpQzI0W0NIMl1OKFtDSDJdNCljNVtjSF1jKEYpW2NIXWMoRilbY0hdNQ==

> <s_epik_cmdline>
J2VwaWtfcHl0aG9uJywgJy1waHQnLCAnMC41JywgJy1waCcsICc3LjUnLCAnLXRuJywgJzgnLCAnLW1hJywgJzUwMCcsICctaW1hZScsICc8aW5maWxlLm1hZT4nLCAnLW9tYWUnLCAnPG91dGZpbGUubWFlPic=

> <r_epik_Ionization_Penalty>
0.013021

> <r_epik_Ionization_Penalty_Charging>
0

> <r_epik_Ionization_Penalty_Neutral>
0.013021

> <r_epik_State_Penalty>
0.00837729

> <r_epik_Charging_Adjusted_Penalty>
0.00837729

> <i_epik_Tot_Q>
0

> <i_epik_Tot_abs_Q>
0

> <s_lp_Force_Field>
S-OPLS

> <r_lp_Energy>
37.0674

> <b_lp_Chiralities_Consistent>
1

> <s_lp_Variant>
ligprep_h3d.sdf:5039-1

> <ROCS_ShapeQuery>
_7L13

> <ROCS_TanimotoCombo>
0.703 

> <ROCS_ShapeTanimoto>
0.647 

> <ROCS_ColorTanimoto>
0.056 

> <ROCS_RefTversky>
0.783 

> <ROCS_RefColorTversky>
0.112 

> <ROCS_RefTverskyCombo>
0.895 

> <ROCS_FitTversky>
0.788 

> <ROCS_FitColorTversky>
0.102 

> <ROCS_FitTverskyCombo>
0.889 

> <ROCS_ColorScore>
-1.013

> <ROCS_Overlap>
1300.174

> <ROCS_Rank>
322                 

$$$$
ligprep_h3d.sdf:2758_1251
  -OEChem-08212117123D

 77 82  0     0  0  0  0  0  0999 V2000
  -26.1518   -6.2424  -21.5413 C   0  0  0  0  0  0  0  0  0  0  0  0
  -25.0672   -5.6922  -20.8542 C   0  0  0  0  0  0  0  0  0  0  0  0
  -19.7883   -6.9068  -32.0211 C   0  0  0  0  0  0  0  0  0  0  0  0
  -19.9112   -6.0000  -30.9684 C   0  0  0  0  0  0  0  0  0  0  0  0
  -21.2083   -5.0360  -24.8268 C   0  0  0  0  0  0  0  0  0  0  0  0
  -20.2728   -2.8085  -24.8284 C   0  0  0  0  0  0  0  0  0  0  0  0
  -20.1601   -5.4769  -25.6345 C   0  0  0  0  0  0  0  0  0  0  0  0
  -19.2245   -3.2493  -25.6360 C   0  0  0  0  0  0  0  0  0  0  0  0
  -26.3289   -6.0136  -22.9116 C   0  0  0  0  0  0  0  0  0  0  0  0
  -24.1220   -4.8954  -21.5087 C   0  0  0  0  0  0  0  0  0  0  0  0
  -21.3405   -5.5976  -33.3302 C   0  0  0  0  0  0  0  0  0  0  0  0
  -20.5029   -6.7056  -33.2021 C   0  0  0  0  0  0  0  0  0  0  0  0
  -21.2647   -3.7018  -24.4238 C   0  0  0  0  0  0  0  0  0  0  0  0
  -19.1681   -4.5836  -26.0391 C   0  0  0  0  0  0  0  0  0  0  0  0
  -20.7488   -4.8920  -31.0965 C   0  0  0  0  0  0  0  0  0  0  0  0
  -25.3889   -5.2152  -23.5850 C   0  0  0  0  0  0  0  0  0  0  0  0
  -24.3186   -4.6809  -22.8733 C   0  0  0  0  0  0  0  0  0  0  0  0
  -21.4635   -4.6908  -32.2774 C   0  0  0  0  0  0  0  0  0  0  0  0
  -24.2533   -4.0972  -25.0063 C   0  0  0  0  0  0  0  0  0  0  0  0
  -20.3738   -7.6610  -34.3104 C   0  0  0  0  0  0  0  0  0  0  0  0
  -24.0249   -4.8799  -28.1152 C   0  0  0  0  0  0  0  0  0  0  0  0
  -23.9023   -2.3828  -28.3207 C   0  0  0  0  0  0  0  0  0  0  0  0
  -22.5692   -4.9481  -28.5875 C   0  0  0  0  0  0  0  0  0  0  0  0
  -22.4508   -2.5345  -28.7865 C   0  0  0  0  0  0  0  0  0  0  0  0
  -19.5040   -5.8044  -35.8253 C   0  0  0  0  0  0  0  0  0  0  0  0
  -19.8356   -8.0877  -36.6856 C   0  0  0  0  0  0  0  0  0  0  0  0
  -18.1707   -5.7811  -36.5633 C   0  0  0  0  0  0  0  0  0  0  0  0
  -18.4848   -7.9712  -37.3765 C   0  0  0  0  0  0  0  0  0  0  0  0
  -24.3481   -3.5480  -27.4341 C   0  0  0  0  0  0  0  0  0  0  0  0
  -22.3951   -3.2254  -23.5521 C   0  0  0  0  0  0  0  0  0  0  0  0
  -20.8684   -3.9263  -29.9532 C   0  0  0  0  0  0  0  0  0  0  0  0
  -18.0467   -5.0560  -26.9013 C   0  0  0  0  0  0  0  0  0  0  0  0
  -25.3316   -4.8420  -24.9083 N   0  0  0  0  0  0  0  0  0  0  0  0
  -23.6088   -3.9706  -23.8072 N   0  0  0  0  0  0  0  0  0  0  0  0
  -19.8995   -7.1879  -35.5350 N   0  0  0  0  0  0  0  0  0  0  0  0
  -22.2445   -3.8189  -29.4691 N   0  0  0  0  0  0  0  0  0  0  0  0
  -23.7388   -3.4702  -26.1253 N   0  0  0  0  0  0  0  0  0  0  0  0
  -20.7043   -8.8215  -34.0709 O   0  0  0  0  0  0  0  0  0  0  0  0
  -18.2276   -6.6089  -37.7277 O   0  0  0  0  0  0  0  0  0  0  0  0
  -22.2854   -3.6135  -32.4190 O   0  0  0  0  0  0  0  0  0  0  0  0
  -18.1197   -6.3833  -27.2161 F   0  0  0  0  0  0  0  0  0  0  0  0
  -17.9702   -4.4092  -28.1019 F   0  0  0  0  0  0  0  0  0  0  0  0
  -16.8259   -4.8856  -26.3152 F   0  0  0  0  0  0  0  0  0  0  0  0
  -26.8696   -6.8578  -21.0049 H   0  0  0  0  0  0  0  0  0  0  0  0
  -24.9544   -5.8869  -19.7906 H   0  0  0  0  0  0  0  0  0  0  0  0
  -19.1331   -7.7671  -31.9109 H   0  0  0  0  0  0  0  0  0  0  0  0
  -19.3505   -6.1653  -30.0523 H   0  0  0  0  0  0  0  0  0  0  0  0
  -21.9770   -5.7390  -24.5166 H   0  0  0  0  0  0  0  0  0  0  0  0
  -20.3083   -1.7675  -24.5177 H   0  0  0  0  0  0  0  0  0  0  0  0
  -20.1235   -6.5185  -25.9421 H   0  0  0  0  0  0  0  0  0  0  0  0
  -18.4556   -2.5469  -25.9468 H   0  0  0  0  0  0  0  0  0  0  0  0
  -27.1748   -6.4454  -23.4366 H   0  0  0  0  0  0  0  0  0  0  0  0
  -23.2805   -4.4692  -20.9744 H   0  0  0  0  0  0  0  0  0  0  0  0
  -21.8995   -5.4370  -34.2491 H   0  0  0  0  0  0  0  0  0  0  0  0
  -24.6873   -5.0043  -28.9823 H   0  0  0  0  0  0  0  0  0  0  0  0
  -24.2391   -5.7191  -27.4422 H   0  0  0  0  0  0  0  0  0  0  0  0
  -24.0282   -1.4283  -27.7953 H   0  0  0  0  0  0  0  0  0  0  0  0
  -24.5566   -2.3377  -29.2017 H   0  0  0  0  0  0  0  0  0  0  0  0
  -21.8951   -4.9773  -27.7214 H   0  0  0  0  0  0  0  0  0  0  0  0
  -22.4347   -5.8910  -29.1318 H   0  0  0  0  0  0  0  0  0  0  0  0
  -22.2298   -1.7109  -29.4765 H   0  0  0  0  0  0  0  0  0  0  0  0
  -21.7700   -2.4297  -27.9317 H   0  0  0  0  0  0  0  0  0  0  0  0
  -19.4425   -5.1982  -34.9184 H   0  0  0  0  0  0  0  0  0  0  0  0
  -20.2930   -5.3857  -36.4613 H   0  0  0  0  0  0  0  0  0  0  0  0
  -20.6377   -7.7781  -37.3661 H   0  0  0  0  0  0  0  0  0  0  0  0
  -20.0263   -9.1223  -36.3846 H   0  0  0  0  0  0  0  0  0  0  0  0
  -17.9463   -4.7618  -36.8929 H   0  0  0  0  0  0  0  0  0  0  0  0
  -17.3484   -6.1099  -35.9168 H   0  0  0  0  0  0  0  0  0  0  0  0
  -17.6733   -8.3501  -36.7437 H   0  0  0  0  0  0  0  0  0  0  0  0
  -18.4876   -8.5574  -38.3008 H   0  0  0  0  0  0  0  0  0  0  0  0
  -25.4469   -3.4822  -27.2919 H   0  0  0  0  0  0  0  0  0  0  0  0
  -22.1460   -3.3288  -22.4890 H   0  0  0  0  0  0  0  0  0  0  0  0
  -22.6042   -2.1620  -23.7205 H   0  0  0  0  0  0  0  0  0  0  0  0
  -20.2392   -4.2419  -29.1138 H   0  0  0  0  0  0  0  0  0  0  0  0
  -20.5382   -2.9248  -30.2485 H   0  0  0  0  0  0  0  0  0  0  0  0
  -22.8911   -2.9277  -26.0322 H   0  0  0  0  0  0  0  0  0  0  0  0
  -22.7033   -3.6236  -33.2943 H   0  0  0  0  0  0  0  0  0  0  0  0
  1  2  2  0  0  0  0
  1  9  1  0  0  0  0
  2 10  1  0  0  0  0
  3  4  1  0  0  0  0
  3 12  2  0  0  0  0
  4 15  2  0  0  0  0
  5  7  1  0  0  0  0
  5 13  2  0  0  0  0
  6  8  2  0  0  0  0
  6 13  1  0  0  0  0
  7 14  2  0  0  0  0
  8 14  1  0  0  0  0
  9 16  2  0  0  0  0
 10 17  2  0  0  0  0
 11 12  1  0  0  0  0
 11 18  2  0  0  0  0
 12 20  1  0  0  0  0
 13 30  1  0  0  0  0
 14 32  1  0  0  0  0
 15 18  1  0  0  0  0
 15 31  1  0  0  0  0
 16 17  1  0  0  0  0
 16 33  1  0  0  0  0
 17 34  1  0  0  0  0
 18 40  1  0  0  0  0
 19 33  2  0  0  0  0
 19 34  1  0  0  0  0
 19 37  1  0  0  0  0
 20 35  1  0  0  0  0
 20 38  2  0  0  0  0
 21 23  1  0  0  0  0
 21 29  1  0  0  0  0
 22 24  1  0  0  0  0
 22 29  1  0  0  0  0
 23 36  1  0  0  0  0
 24 36  1  0  0  0  0
 25 27  1  0  0  0  0
 25 35  1  0  0  0  0
 26 28  1  0  0  0  0
 26 35  1  0  0  0  0
 27 39  1  0  0  0  0
 28 39  1  0  0  0  0
 29 37  1  0  0  0  0
 30 34  1  0  0  0  0
 31 36  1  0  0  0  0
 32 41  1  0  0  0  0
 32 42  1  0  0  0  0
 32 43  1  0  0  0  0
  1 44  1  0  0  0  0
  2 45  1  0  0  0  0
  3 46  1  0  0  0  0
  4 47  1  0  0  0  0
  5 48  1  0  0  0  0
  6 49  1  0  0  0  0
  7 50  1  0  0  0  0
  8 51  1  0  0  0  0
  9 52  1  0  0  0  0
 10 53  1  0  0  0  0
 11 54  1  0  0  0  0
 21 55  1  0  0  0  0
 21 56  1  0  0  0  0
 22 57  1  0  0  0  0
 22 58  1  0  0  0  0
 23 59  1  0  0  0  0
 23 60  1  0  0  0  0
 24 61  1  0  0  0  0
 24 62  1  0  0  0  0
 25 63  1  0  0  0  0
 25 64  1  0  0  0  0
 26 65  1  0  0  0  0
 26 66  1  0  0  0  0
 27 67  1  0  0  0  0
 27 68  1  0  0  0  0
 28 69  1  0  0  0  0
 28 70  1  0  0  0  0
 29 71  1  0  0  0  0
 30 72  1  0  0  0  0
 30 73  1  0  0  0  0
 31 74  1  0  0  0  0
 31 75  1  0  0  0  0
 37 76  1  0  0  0  0
 40 77  1  0  0  0  0
M  END
> <SMILES>
Oc1cc(ccc1CN1CCC(CC1)Nc1nc2ccccc2n1Cc1ccc(cc1)C(F)(F)F)C(=O)N1CCOCC1

> <FORMATTED_ID>
H3D-008449

> <MOLFORMULA>
C32H34F3N5O3

> <Exact Mass>
593.26

> <XLogP>
6.7

> <TPSA_NOPS>
82.9

> <s_m_source_file>
ligprep_h3d.sdf

> <i_m_source_file_index>
2758

> <i_lp_mmshare_version>
55123

> <i_f3d_flags>
0

> <s_epik_input>
W0NIMl0xW0NIMl1PW0NIMl1bQ0gyXU4xQyg9TyljKFtjSF1jMltPSF0pW2NIXVtjSF1jMltDSDJdTjNbQ0gyXVtDSDJdW0NIXShbQ0gyXVtDSDJdMylbTkhdYyhuNCluKGMoYzQ1KVtjSF1bY0hdW2NIXVtjSF01KVtDSDJdYzZbY0hdW2NIXWMoQyhGKShGKUYpW2NIXVtjSF02

> <s_epik_cmdline>
J2VwaWtfcHl0aG9uJywgJy1waHQnLCAnMC41JywgJy1waCcsICc3LjUnLCAnLXRuJywgJzgnLCAnLW1hJywgJzUwMCcsICctaW1hZScsICc8aW5maWxlLm1hZT4nLCAnLW9tYWUnLCAnPG91dGZpbGUubWFlPic=

> <r_lp_tautomer_probability>
1

> <r_epik_Ionization_Penalty>
0.662999

> <r_epik_Ionization_Penalty_Charging>
0

> <r_epik_Ionization_Penalty_Neutral>
0.662999

> <r_epik_State_Penalty>
0.475752

> <r_epik_Charging_Adjusted_Penalty>
0.475752

> <i_epik_Tot_Q>
0

> <i_epik_Tot_abs_Q>
0

> <s_lp_Force_Field>
S-OPLS

> <r_lp_Energy>
45.7047

> <b_lp_Chiralities_Consistent>
1

> <s_lp_Variant>
ligprep_h3d.sdf:2758-1

> <ROCS_ShapeQuery>
_7L13

> <ROCS_TanimotoCombo>
0.612 

> <ROCS_ShapeTanimoto>
0.563 

> <ROCS_ColorTanimoto>
0.049 

> <ROCS_RefTversky>
0.783 

> <ROCS_RefColorTversky>
0.112 

> <ROCS_RefTverskyCombo>
0.895 

> <ROCS_FitTversky>
0.666 

> <ROCS_FitColorTversky>
0.080 

> <ROCS_FitTverskyCombo>
0.747 

> <ROCS_ColorScore>
-1.028

> <ROCS_Overlap>
1313.356

> <ROCS_Rank>
323                 

$$$$
ligprep_h3d.sdf:2149_1916
  -OEChem-08212117123D

 71 74  0     0  0  0  0  0  0999 V2000
  -26.2935   -4.7618  -22.5880 C   0  0  0  0  0  0  0  0  0  0  0  0
  -27.1963   -4.3931  -29.1939 C   0  0  0  0  0  0  0  0  0  0  0  0
  -27.6232   -4.4294  -27.8655 C   0  0  0  0  0  0  0  0  0  0  0  0
  -25.8392   -4.3628  -29.4978 C   0  0  0  0  0  0  0  0  0  0  0  0
  -20.0449   -3.6145  -27.2064 C   0  0  0  0  0  0  0  0  0  0  0  0
  -20.5896   -5.5515  -25.8691 C   0  0  0  0  0  0  0  0  0  0  0  0
  -18.7023   -3.9928  -27.2075 C   0  0  0  0  0  0  0  0  0  0  0  0
  -19.2470   -5.9298  -25.8702 C   0  0  0  0  0  0  0  0  0  0  0  0
  -26.6605   -4.4256  -26.8397 C   0  0  0  0  0  0  0  0  0  0  0  0
  -25.3010   -4.3665  -27.1517 C   0  0  0  0  0  0  0  0  0  0  0  0
  -20.9885   -4.3938  -26.5372 C   0  0  0  0  0  0  0  0  0  0  0  0
  -24.8691   -4.3536  -28.4879 C   0  0  0  0  0  0  0  0  0  0  0  0
  -18.3034   -5.1504  -26.5394 C   0  0  0  0  0  0  0  0  0  0  0  0
  -25.6552   -4.4865  -24.9506 C   0  0  0  0  0  0  0  0  0  0  0  0
  -22.9544   -4.3429  -24.2703 C   0  0  0  0  0  0  0  0  0  0  0  0
  -25.2767   -4.5907  -23.5732 C   0  0  0  0  0  0  0  0  0  0  0  0
  -23.9678   -4.5337  -23.2377 C   0  0  0  0  0  0  0  0  0  0  0  0
  -23.2820   -4.2433  -25.5754 C   0  0  0  0  0  0  0  0  0  0  0  0
  -22.9813   -3.8578  -30.0799 C   0  0  0  0  0  0  0  0  0  0  0  0
  -21.0274   -5.4653  -32.1641 C   0  0  0  0  0  0  0  0  0  0  0  0
  -19.1967   -2.7246  -31.9994 C   0  0  0  0  0  0  0  0  0  0  0  0
  -20.8426   -7.6917  -33.9538 C   0  0  0  0  0  0  0  0  0  0  0  0
  -19.5096   -6.1575  -35.4297 C   0  0  0  0  0  0  0  0  0  0  0  0
  -18.6551   -6.7474  -33.1428 C   0  0  0  0  0  0  0  0  0  0  0  0
  -21.4853   -4.1003  -30.1341 C   0  0  0  0  0  0  0  0  0  0  0  0
  -20.6539   -2.9841  -32.1782 C   0  0  0  0  0  0  0  0  0  0  0  0
  -23.4189   -4.6378  -21.8394 C   0  0  0  0  0  0  0  0  0  0  0  0
  -19.8996   -6.4900  -33.9911 C   0  0  0  0  0  0  0  0  0  0  0  0
  -16.3224   -5.6267  -25.2898 C   0  0  0  0  0  0  0  0  0  0  0  0
  -27.1208   -4.9011  -21.7867 N   0  0  0  0  0  0  0  0  0  0  0  0
  -26.8557   -4.4933  -25.4899 N   0  0  0  0  0  0  0  0  0  0  0  0
  -24.6497   -4.3497  -25.9183 N   0  0  0  0  0  0  0  0  0  0  0  0
  -22.3360   -4.0141  -26.5362 N   0  0  0  0  0  0  0  0  0  0  0  0
  -23.5395   -4.3785  -28.8982 N   0  0  0  0  0  0  0  0  0  0  0  0
  -21.0569   -4.2201  -31.5046 N   0  0  0  0  0  0  0  0  0  0  0  0
  -23.5808   -3.2678  -30.9731 O   0  0  0  0  0  0  0  0  0  0  0  0
  -21.3517   -6.5382  -31.6579 O   0  0  0  0  0  0  0  0  0  0  0  0
  -16.9933   -5.5196  -26.5404 O   0  0  0  0  0  0  0  0  0  0  0  0
  -20.5885   -5.3533  -33.4571 O   0  0  0  0  0  0  0  0  0  0  0  0
  -22.0777   -4.5293  -21.8471 F   0  0  0  0  0  0  0  0  0  0  0  0
  -23.9151   -3.6600  -21.0592 F   0  0  0  0  0  0  0  0  0  0  0  0
  -23.7416   -5.8212  -21.2855 F   0  0  0  0  0  0  0  0  0  0  0  0
  -16.9172   -6.5426  -24.4964 F   0  0  0  0  0  0  0  0  0  0  0  0
  -16.3799   -4.4308  -24.6608 F   0  0  0  0  0  0  0  0  0  0  0  0
  -15.0216   -5.9437  -25.4618 F   0  0  0  0  0  0  0  0  0  0  0  0
  -27.9301   -4.4008  -29.9952 H   0  0  0  0  0  0  0  0  0  0  0  0
  -28.6828   -4.4706  -27.6321 H   0  0  0  0  0  0  0  0  0  0  0  0
  -25.5391   -4.3542  -30.5442 H   0  0  0  0  0  0  0  0  0  0  0  0
  -20.3448   -2.7105  -27.7303 H   0  0  0  0  0  0  0  0  0  0  0  0
  -21.3167   -6.1661  -25.3445 H   0  0  0  0  0  0  0  0  0  0  0  0
  -17.9718   -3.3816  -27.7305 H   0  0  0  0  0  0  0  0  0  0  0  0
  -18.9423   -6.8327  -25.3480 H   0  0  0  0  0  0  0  0  0  0  0  0
  -21.9196   -4.2540  -23.9497 H   0  0  0  0  0  0  0  0  0  0  0  0
  -18.6204   -3.5619  -32.4199 H   0  0  0  0  0  0  0  0  0  0  0  0
  -18.9237   -1.7943  -32.5189 H   0  0  0  0  0  0  0  0  0  0  0  0
  -18.9708   -2.6259  -30.9274 H   0  0  0  0  0  0  0  0  0  0  0  0
  -21.1249   -7.9336  -32.9228 H   0  0  0  0  0  0  0  0  0  0  0  0
  -21.7551   -7.5065  -34.5298 H   0  0  0  0  0  0  0  0  0  0  0  0
  -20.3535   -8.5853  -34.3580 H   0  0  0  0  0  0  0  0  0  0  0  0
  -18.8330   -5.2959  -35.4613 H   0  0  0  0  0  0  0  0  0  0  0  0
  -20.3911   -5.8796  -36.0188 H   0  0  0  0  0  0  0  0  0  0  0  0
  -19.0171   -7.0032  -35.9206 H   0  0  0  0  0  0  0  0  0  0  0  0
  -17.9785   -5.8856  -33.1695 H   0  0  0  0  0  0  0  0  0  0  0  0
  -18.9138   -6.9515  -32.0988 H   0  0  0  0  0  0  0  0  0  0  0  0
  -18.0865   -7.5991  -33.5335 H   0  0  0  0  0  0  0  0  0  0  0  0
  -21.2398   -5.0193  -29.5925 H   0  0  0  0  0  0  0  0  0  0  0  0
  -20.9711   -3.2607  -29.6561 H   0  0  0  0  0  0  0  0  0  0  0  0
  -21.2229   -2.1429  -31.7555 H   0  0  0  0  0  0  0  0  0  0  0  0
  -20.8737   -3.0725  -33.2524 H   0  0  0  0  0  0  0  0  0  0  0  0
  -22.6673   -3.5048  -27.3426 H   0  0  0  0  0  0  0  0  0  0  0  0
  -22.8725   -4.8338  -28.2620 H   0  0  0  0  0  0  0  0  0  0  0  0
  1 16  1  0  0  0  0
  1 30  3  0  0  0  0
  2  3  1  0  0  0  0
  2  4  2  0  0  0  0
  3  9  2  0  0  0  0
  4 12  1  0  0  0  0
  5  7  1  0  0  0  0
  5 11  2  0  0  0  0
  6  8  2  0  0  0  0
  6 11  1  0  0  0  0
  7 13  2  0  0  0  0
  8 13  1  0  0  0  0
  9 10  1  0  0  0  0
  9 31  1  0  0  0  0
 10 12  2  0  0  0  0
 10 32  1  0  0  0  0
 11 33  1  0  0  0  0
 12 34  1  0  0  0  0
 13 38  1  0  0  0  0
 14 16  1  0  0  0  0
 14 31  2  0  0  0  0
 14 32  1  0  0  0  0
 15 17  1  0  0  0  0
 15 18  2  0  0  0  0
 16 17  2  0  0  0  0
 17 27  1  0  0  0  0
 18 32  1  0  0  0  0
 18 33  1  0  0  0  0
 19 25  1  0  0  0  0
 19 34  1  0  0  0  0
 19 36  2  0  0  0  0
 20 35  1  0  0  0  0
 20 37  2  0  0  0  0
 20 39  1  0  0  0  0
 21 26  1  0  0  0  0
 22 28  1  0  0  0  0
 23 28  1  0  0  0  0
 24 28  1  0  0  0  0
 25 35  1  0  0  0  0
 26 35  1  0  0  0  0
 27 40  1  0  0  0  0
 27 41  1  0  0  0  0
 27 42  1  0  0  0  0
 28 39  1  0  0  0  0
 29 38  1  0  0  0  0
 29 43  1  0  0  0  0
 29 44  1  0  0  0  0
 29 45  1  0  0  0  0
  2 46  1  0  0  0  0
  3 47  1  0  0  0  0
  4 48  1  0  0  0  0
  5 49  1  0  0  0  0
  6 50  1  0  0  0  0
  7 51  1  0  0  0  0
  8 52  1  0  0  0  0
 15 53  1  0  0  0  0
 21 54  1  0  0  0  0
 21 55  1  0  0  0  0
 21 56  1  0  0  0  0
 22 57  1  0  0  0  0
 22 58  1  0  0  0  0
 22 59  1  0  0  0  0
 23 60  1  0  0  0  0
 23 61  1  0  0  0  0
 23 62  1  0  0  0  0
 24 63  1  0  0  0  0
 24 64  1  0  0  0  0
 24 65  1  0  0  0  0
 25 66  1  0  0  0  0
 25 67  1  0  0  0  0
 26 68  1  0  0  0  0
 26 69  1  0  0  0  0
 33 70  1  0  0  0  0
 34 71  1  0  0  0  0
M  END
> <SMILES>
CCN(CC(=O)Nc1cccc2nc3c(c(cc(n3c12)Nc1ccc(cc1)OC(F)(F)F)C(F)(F)F)C#N)C(=O)OC(C)(C)C

> <FORMATTED_ID>
H3D-004705

> <MOLFORMULA>
C29H26F6N6O4

> <Exact Mass>
636.19

> <XLogP>
8.18

> <TPSA_NOPS>
121

> <s_m_source_file>
ligprep_h3d.sdf

> <i_m_source_file_index>
2149

> <i_lp_mmshare_version>
55123

> <i_f3d_flags>
0

> <s_epik_input>
W0NIM11DKFtDSDNdKShbQ0gzXSlPQyg9TylOKFtDSDJdW0NIM10pW0NIMl1DKD1PKVtOSF1jKFtjSF1bY0hdW2NIXTEpYyhjMTIpbjNjKG4yKWMoQyNOKWMoQyhGKShGKUYpW2NIXWMzW05IXWM0W2NIXVtjSF1jKFtjSF1bY0hdNClPQyhGKShGKUY=

> <s_epik_cmdline>
J2VwaWtfcHl0aG9uJywgJy1waHQnLCAnMC41JywgJy1waCcsICc3LjUnLCAnLXRuJywgJzgnLCAnLW1hJywgJzUwMCcsICctaW1hZScsICc8aW5maWxlLm1hZT4nLCAnLW9tYWUnLCAnPG91dGZpbGUubWFlPic=

> <r_lp_tautomer_probability>
1

> <r_epik_Ionization_Penalty>
0.000114252

> <r_epik_Ionization_Penalty_Charging>
0

> <r_epik_Ionization_Penalty_Neutral>
0.000114252

> <r_epik_State_Penalty>
-0

> <r_epik_Charging_Adjusted_Penalty>
0

> <i_epik_Tot_Q>
0

> <i_epik_Tot_abs_Q>
0

> <s_epik_Chemistry_Notes>
This compound has an ester and may undergo hydrolysis at high or low pH.

> <s_lp_Force_Field>
S-OPLS

> <r_lp_Energy>
69.837

> <b_lp_Chiralities_Consistent>
1

> <s_lp_Variant>
ligprep_h3d.sdf:2149-1

> <ROCS_ShapeQuery>
_7L13

> <ROCS_TanimotoCombo>
0.608 

> <ROCS_ShapeTanimoto>
0.540 

> <ROCS_ColorTanimoto>
0.069 

> <ROCS_RefTversky>
0.783 

> <ROCS_RefColorTversky>
0.148 

> <ROCS_RefTverskyCombo>
0.931 

> <ROCS_FitTversky>
0.634 

> <ROCS_FitColorTversky>
0.114 

> <ROCS_FitTverskyCombo>
0.748 

> <ROCS_ColorScore>
-1.350

> <ROCS_Overlap>
1317.510

> <ROCS_Rank>
324                 

$$$$
ligprep_h3d.sdf:5362_1919
  -OEChem-08212117123D

 64 69  0     0  0  0  0  0  0999 V2000
  -21.3474   -6.9931  -33.6838 C   0  0  0  0  0  0  0  0  0  0  0  0
  -20.1012   -4.9579  -34.0608 C   0  0  0  0  0  0  0  0  0  0  0  0
  -20.6466   -7.6138  -34.7179 C   0  0  0  0  0  0  0  0  0  0  0  0
  -19.4004   -5.5786  -35.0949 C   0  0  0  0  0  0  0  0  0  0  0  0
  -25.2319   -3.1262  -22.4594 C   0  0  0  0  0  0  0  0  0  0  0  0
  -25.2745   -5.3856  -25.2649 C   0  0  0  0  0  0  0  0  0  0  0  0
  -19.0480   -4.4906  -28.5631 C   0  0  0  0  0  0  0  0  0  0  0  0
  -21.7250   -4.2110  -29.3848 C   0  0  0  0  0  0  0  0  0  0  0  0
  -26.1229   -3.7398  -21.5927 C   0  0  0  0  0  0  0  0  0  0  0  0
  -26.5821   -5.5243  -23.0212 C   0  0  0  0  0  0  0  0  0  0  0  0
  -25.7023   -4.9900  -23.9676 C   0  0  0  0  0  0  0  0  0  0  0  0
  -20.0729   -4.5202  -27.6245 C   0  0  0  0  0  0  0  0  0  0  0  0
  -21.0747   -5.6651  -33.3553 C   0  0  0  0  0  0  0  0  0  0  0  0
  -25.0440   -3.7973  -23.6640 C   0  0  0  0  0  0  0  0  0  0  0  0
  -21.4032   -4.3776  -28.0431 C   0  0  0  0  0  0  0  0  0  0  0  0
  -19.3610   -4.3167  -29.9129 C   0  0  0  0  0  0  0  0  0  0  0  0
  -20.6910   -4.1795  -30.3210 C   0  0  0  0  0  0  0  0  0  0  0  0
  -19.6731   -6.9065  -35.4234 C   0  0  0  0  0  0  0  0  0  0  0  0
  -24.3803   -4.4419  -25.7161 C   0  0  0  0  0  0  0  0  0  0  0  0
  -23.6620   -4.4053  -26.9996 C   0  0  0  0  0  0  0  0  0  0  0  0
  -19.0305   -3.7926  -25.3818 C   0  0  0  0  0  0  0  0  0  0  0  0
  -19.6607   -6.2309  -25.8000 C   0  0  0  0  0  0  0  0  0  0  0  0
  -21.4533   -4.4411  -25.7129 C   0  0  0  0  0  0  0  0  0  0  0  0
  -17.5609   -4.1905  -25.4102 C   0  0  0  0  0  0  0  0  0  0  0  0
  -18.1788   -6.5696  -25.8728 C   0  0  0  0  0  0  0  0  0  0  0  0
  -19.9833   -4.7536  -26.1256 C   0  0  0  0  0  0  0  0  0  0  0  0
  -17.0220   -4.4306  -30.3362 C   0  0  0  0  0  0  0  0  0  0  0  0
  -21.8276   -4.9971  -32.2425 C   0  0  0  0  0  0  0  0  0  0  0  0
  -26.7851   -4.8935  -21.8395 N   0  0  0  0  0  0  0  0  0  0  0  0
  -24.2477   -3.4876  -24.7431 N   0  0  0  0  0  0  0  0  0  0  0  0
  -22.2743   -4.4170  -26.9378 N   0  0  0  0  0  0  0  0  0  0  0  0
  -17.4175   -5.6188  -25.0145 N   0  3  0  0  0  0  0  0  0  0  0  0
  -24.3632   -4.3853  -28.0077 O   0  0  0  0  0  0  0  0  0  0  0  0
  -18.3515   -4.2839  -30.8299 O   0  0  0  0  0  0  0  0  0  0  0  0
  -20.9911   -4.0125  -31.6402 O   0  0  0  0  0  0  0  0  0  0  0  0
  -18.9982   -7.5033  -36.4147 F   0  0  0  0  0  0  0  0  0  0  0  0
  -22.1046   -7.5520  -33.1403 H   0  0  0  0  0  0  0  0  0  0  0  0
  -19.8817   -3.9230  -33.8117 H   0  0  0  0  0  0  0  0  0  0  0  0
  -20.8583   -8.6477  -34.9733 H   0  0  0  0  0  0  0  0  0  0  0  0
  -18.6427   -5.0282  -35.6447 H   0  0  0  0  0  0  0  0  0  0  0  0
  -24.7253   -2.2010  -22.2181 H   0  0  0  0  0  0  0  0  0  0  0  0
  -25.5887   -6.2674  -25.8078 H   0  0  0  0  0  0  0  0  0  0  0  0
  -18.0102   -4.6025  -28.2542 H   0  0  0  0  0  0  0  0  0  0  0  0
  -22.7474   -4.1048  -29.7272 H   0  0  0  0  0  0  0  0  0  0  0  0
  -26.3376   -3.2928  -20.6264 H   0  0  0  0  0  0  0  0  0  0  0  0
  -27.1335   -6.4440  -23.1761 H   0  0  0  0  0  0  0  0  0  0  0  0
  -19.3512   -3.6755  -24.3262 H   0  0  0  0  0  0  0  0  0  0  0  0
  -19.1202   -2.7724  -25.8094 H   0  0  0  0  0  0  0  0  0  0  0  0
  -20.2029   -6.8934  -26.4976 H   0  0  0  0  0  0  0  0  0  0  0  0
  -20.0443   -6.4945  -24.7991 H   0  0  0  0  0  0  0  0  0  0  0  0
  -21.8713   -5.1985  -25.0394 H   0  0  0  0  0  0  0  0  0  0  0  0
  -21.5534   -3.4671  -25.2202 H   0  0  0  0  0  0  0  0  0  0  0  0
  -17.1431   -4.0959  -26.4198 H   0  0  0  0  0  0  0  0  0  0  0  0
  -16.9489   -3.5961  -24.7199 H   0  0  0  0  0  0  0  0  0  0  0  0
  -17.9580   -7.5808  -25.5176 H   0  0  0  0  0  0  0  0  0  0  0  0
  -17.7946   -6.4575  -26.8910 H   0  0  0  0  0  0  0  0  0  0  0  0
  -16.3162   -4.3862  -31.1693 H   0  0  0  0  0  0  0  0  0  0  0  0
  -16.9289   -5.3876  -29.8165 H   0  0  0  0  0  0  0  0  0  0  0  0
  -16.8101   -3.6171  -29.6384 H   0  0  0  0  0  0  0  0  0  0  0  0
  -22.7351   -4.5128  -32.6190 H   0  0  0  0  0  0  0  0  0  0  0  0
  -22.1264   -5.7278  -31.4832 H   0  0  0  0  0  0  0  0  0  0  0  0
  -23.6521   -2.6731  -24.8039 H   0  0  0  0  0  0  0  0  0  0  0  0
  -16.4198   -5.8773  -25.0198 H   0  0  0  0  0  0  0  0  0  0  0  0
  -17.7236   -5.7298  -24.0373 H   0  0  0  0  0  0  0  0  0  0  0  0
  1  3  1  0  0  0  0
  1 13  2  0  0  0  0
  2  4  2  0  0  0  0
  2 13  1  0  0  0  0
  3 18  2  0  0  0  0
  4 18  1  0  0  0  0
  5  9  1  0  0  0  0
  5 14  2  0  0  0  0
  6 11  1  0  0  0  0
  6 19  2  0  0  0  0
  7 12  1  0  0  0  0
  7 16  2  0  0  0  0
  8 15  1  0  0  0  0
  8 17  2  0  0  0  0
  9 29  2  0  0  0  0
 10 11  2  0  0  0  0
 10 29  1  0  0  0  0
 11 14  1  0  0  0  0
 12 15  2  0  0  0  0
 12 26  1  0  0  0  0
 13 28  1  0  0  0  0
 14 30  1  0  0  0  0
 15 31  1  0  0  0  0
 16 17  1  0  0  0  0
 16 34  1  0  0  0  0
 17 35  1  0  0  0  0
 18 36  1  0  0  0  0
 19 20  1  0  0  0  0
 19 30  1  0  0  0  0
 20 31  1  0  0  0  0
 20 33  2  0  0  0  0
 21 24  1  0  0  0  0
 21 26  1  0  0  0  0
 22 25  1  0  0  0  0
 22 26  1  0  0  0  0
 23 26  1  0  0  0  0
 23 31  1  0  0  0  0
 24 32  1  0  0  0  0
 25 32  1  0  0  0  0
 27 34  1  0  0  0  0
 28 35  1  0  0  0  0
  1 37  1  0  0  0  0
  2 38  1  0  0  0  0
  3 39  1  0  0  0  0
  4 40  1  0  0  0  0
  5 41  1  0  0  0  0
  6 42  1  0  0  0  0
  7 43  1  0  0  0  0
  8 44  1  0  0  0  0
  9 45  1  0  0  0  0
 10 46  1  0  0  0  0
 21 47  1  0  0  0  0
 21 48  1  0  0  0  0
 22 49  1  0  0  0  0
 22 50  1  0  0  0  0
 23 51  1  0  0  0  0
 23 52  1  0  0  0  0
 24 53  1  0  0  0  0
 24 54  1  0  0  0  0
 25 55  1  0  0  0  0
 25 56  1  0  0  0  0
 27 57  1  0  0  0  0
 27 58  1  0  0  0  0
 27 59  1  0  0  0  0
 28 60  1  0  0  0  0
 28 61  1  0  0  0  0
 30 62  1  0  0  0  0
 32 63  1  0  0  0  0
 32 64  1  0  0  0  0
M  CHG  1  32   1
M  END
> <SMILES>
COc1cc2c(cc1OCc1ccc(cc1)F)N(CC12CCNCC1)C(=O)c1cc2cnccc2[nH]1

> <FORMATTED_ID>
H3D-015090

> <MOLFORMULA>
C28H27FN4O3

> <Exact Mass>
486.21

> <XLogP>
4.98

> <TPSA_NOPS>
79.5

> <s_m_source_file>
ligprep_h3d.sdf

> <i_m_source_file_index>
5362

> <i_lp_mmshare_version>
55123

> <i_f3d_flags>
0

> <s_epik_input>
W2NIXTFbY0hdYyhGKVtjSF1bY0hdYzFbQ0gyXU9jKGMoW2NIXTIpT1tDSDNdKVtjSF1jKGMyQzM0W0NIMl1bQ0gyXVtOSF1bQ0gyXVtDSDJdNClOKFtDSDJdMylDKD1PKWMoW2NIXTUpW25IXWMoYzU2KVtjSF1bY0hdbltjSF02

> <s_epik_cmdline>
J2VwaWtfcHl0aG9uJywgJy1waHQnLCAnMC41JywgJy1waCcsICc3LjUnLCAnLXRuJywgJzgnLCAnLW1hJywgJzUwMCcsICctaW1hZScsICc8aW5maWxlLm1hZT4nLCAnLW9tYWUnLCAnPG91dGZpbGUubWFlPic=

> <r_lp_tautomer_probability>
0.999931

> <r_epik_Ionization_Penalty>
0.645559

> <r_epik_Ionization_Penalty_Charging>
0.00312242

> <r_epik_Ionization_Penalty_Neutral>
0.642436

> <r_epik_State_Penalty>
0.660237

> <r_epik_Charging_Adjusted_Penalty>
0.663359

> <i_epik_Tot_Q>
1

> <i_epik_Tot_abs_Q>
1

> <s_lp_Force_Field>
S-OPLS

> <r_lp_Energy>
76.3155

> <b_lp_Chiralities_Consistent>
1

> <s_lp_Variant>
ligprep_h3d.sdf:5362-2

> <ROCS_ShapeQuery>
_7L13

> <ROCS_TanimotoCombo>
0.753 

> <ROCS_ShapeTanimoto>
0.637 

> <ROCS_ColorTanimoto>
0.116 

> <ROCS_RefTversky>
0.783 

> <ROCS_RefColorTversky>
0.249 

> <ROCS_RefTverskyCombo>
1.032 

> <ROCS_FitTversky>
0.774 

> <ROCS_FitColorTversky>
0.178 

> <ROCS_FitTverskyCombo>
0.952 

> <ROCS_ColorScore>
-2.291

> <ROCS_Overlap>
1300.992

> <ROCS_Rank>
325                 

$$$$
ligprep_h3d.sdf:4914_1702
  -OEChem-08212117123D

 74 79  0     1  0  0  0  0  0999 V2000
  -18.9853   -5.9047  -34.5911 C   0  0  0  0  0  0  0  0  0  0  0  0
  -20.8378   -4.7668  -24.5110 C   0  0  0  0  0  0  0  0  0  0  0  0
  -20.9394    0.8976  -32.7157 C   0  0  0  0  0  0  0  0  0  0  0  0
  -23.1763    1.8096  -32.7509 C   0  0  0  0  0  0  0  0  0  0  0  0
  -18.3543   -6.2074  -35.7976 C   0  0  0  0  0  0  0  0  0  0  0  0
  -22.0264   -4.9374  -23.8012 C   0  0  0  0  0  0  0  0  0  0  0  0
  -20.4407    2.1015  -33.2132 C   0  0  0  0  0  0  0  0  0  0  0  0
  -22.6777    3.0136  -33.2484 C   0  0  0  0  0  0  0  0  0  0  0  0
  -20.4934   -7.7645  -34.9131 C   0  0  0  0  0  0  0  0  0  0  0  0
  -23.2907   -4.4415  -25.7994 C   0  0  0  0  0  0  0  0  0  0  0  0
  -20.0548   -6.6833  -34.1488 C   0  0  0  0  0  0  0  0  0  0  0  0
  -20.8757   -4.4335  -25.8650 C   0  0  0  0  0  0  0  0  0  0  0  0
  -22.1021   -4.2710  -26.5092 C   0  0  0  0  0  0  0  0  0  0  0  0
  -22.3072    0.7516  -32.4846 C   0  0  0  0  0  0  0  0  0  0  0  0
  -18.7929   -7.2886  -36.5620 C   0  0  0  0  0  0  0  0  0  0  0  0
  -21.3098    3.1595  -33.4795 C   0  0  0  0  0  0  0  0  0  0  0  0
  -23.2529   -4.7748  -24.4454 C   0  0  0  0  0  0  0  0  0  0  0  0
  -19.8624   -8.0672  -36.1198 C   0  0  0  0  0  0  0  0  0  0  0  0
  -21.8793   -5.3927  -33.0384 C   0  0  0  0  0  0  0  0  0  0  0  0
  -18.6849   -3.2602  -26.1736 C   0  0  0  0  0  0  0  0  0  0  0  0
  -19.1381   -5.3409  -27.3893 C   0  0  0  0  0  0  0  0  0  0  0  0
  -23.1907   -3.5475  -32.0248 C   0  0  0  0  0  0  0  0  0  0  0  0
  -23.1268   -4.2339  -28.8738 C   0  0  0  0  0  0  0  0  0  0  0  0
  -21.4991   -2.9284  -28.6250 C   0  0  0  0  0  0  0  0  0  0  0  0
  -21.3552   -4.4792  -30.7329 C   0  0  0  0  0  0  0  0  0  0  0  0
  -17.5306   -3.9621  -25.4665 C   0  0  0  0  0  0  0  0  0  0  0  0
  -17.9575   -5.9708  -26.6488 C   0  0  0  0  0  0  0  0  0  0  0  0
  -22.9115   -2.5923  -30.8689 C   0  0  1  0  0  0  0  0  0  0  0  0
  -22.1875   -3.5140  -29.8823 C   0  0  0  0  0  0  0  0  0  0  0  0
  -20.7339   -6.3558  -32.8523 C   0  0  0  0  0  0  0  0  0  0  0  0
  -22.0227   -1.4302  -31.3081 C   0  0  0  0  0  0  0  0  0  0  0  0
  -19.6804   -4.2654  -26.5523 N   0  0  0  0  0  0  0  0  0  0  0  0
  -22.1629   -3.9362  -27.8691 N   0  0  0  0  0  0  0  0  0  0  0  0
  -22.1116   -4.5265  -31.9820 N   0  0  0  0  0  0  0  0  0  0  0  0
  -22.8066   -0.4540  -31.9865 N   0  0  0  0  0  0  0  0  0  0  0  0
  -22.5449   -5.4104  -34.0751 O   0  0  0  0  0  0  0  0  0  0  0  0
  -16.9818   -4.9767  -26.3162 O   0  0  0  0  0  0  0  0  0  0  0  0
  -18.1766   -7.5824  -37.7395 O   0  0  0  0  0  0  0  0  0  0  0  0
  -20.8309    4.3157  -33.9572 F   0  0  0  0  0  0  0  0  0  0  0  0
  -24.3942   -4.9382  -23.7637 F   0  0  0  0  0  0  0  0  0  0  0  0
  -20.2885   -9.1070  -36.8499 F   0  0  0  0  0  0  0  0  0  0  0  0
  -18.6376   -5.0596  -34.0027 H   0  0  0  0  0  0  0  0  0  0  0  0
  -19.8879   -4.8954  -23.9981 H   0  0  0  0  0  0  0  0  0  0  0  0
  -20.2531    0.0798  -32.5114 H   0  0  0  0  0  0  0  0  0  0  0  0
  -24.2440    1.7067  -32.5748 H   0  0  0  0  0  0  0  0  0  0  0  0
  -17.5210   -5.5981  -36.1373 H   0  0  0  0  0  0  0  0  0  0  0  0
  -21.9967   -5.1972  -22.7470 H   0  0  0  0  0  0  0  0  0  0  0  0
  -19.3758    2.2156  -33.3930 H   0  0  0  0  0  0  0  0  0  0  0  0
  -23.3539    3.8375  -33.4562 H   0  0  0  0  0  0  0  0  0  0  0  0
  -21.3267   -8.3758  -34.5770 H   0  0  0  0  0  0  0  0  0  0  0  0
  -24.2525   -4.3180  -26.2905 H   0  0  0  0  0  0  0  0  0  0  0  0
  -19.1173   -2.5041  -25.5100 H   0  0  0  0  0  0  0  0  0  0  0  0
  -18.3148   -2.7596  -27.0760 H   0  0  0  0  0  0  0  0  0  0  0  0
  -18.7950   -4.9220  -28.3395 H   0  0  0  0  0  0  0  0  0  0  0  0
  -19.8924   -6.1039  -27.5930 H   0  0  0  0  0  0  0  0  0  0  0  0
  -24.1242   -4.0985  -31.8601 H   0  0  0  0  0  0  0  0  0  0  0  0
  -23.2457   -3.0642  -33.0053 H   0  0  0  0  0  0  0  0  0  0  0  0
  -24.0877   -3.7428  -28.6843 H   0  0  0  0  0  0  0  0  0  0  0  0
  -23.2812   -5.3066  -29.0180 H   0  0  0  0  0  0  0  0  0  0  0  0
  -20.4098   -3.0081  -28.5852 H   0  0  0  0  0  0  0  0  0  0  0  0
  -21.8164   -1.9202  -28.3387 H   0  0  0  0  0  0  0  0  0  0  0  0
  -20.3629   -4.0734  -30.9567 H   0  0  0  0  0  0  0  0  0  0  0  0
  -21.2496   -5.4786  -30.3013 H   0  0  0  0  0  0  0  0  0  0  0  0
  -16.7356   -3.2447  -25.2520 H   0  0  0  0  0  0  0  0  0  0  0  0
  -17.8472   -4.4053  -24.5181 H   0  0  0  0  0  0  0  0  0  0  0  0
  -18.2840   -6.4885  -25.7393 H   0  0  0  0  0  0  0  0  0  0  0  0
  -17.4712   -6.7102  -27.2923 H   0  0  0  0  0  0  0  0  0  0  0  0
  -23.8435   -2.1896  -30.4573 H   0  0  0  0  0  0  0  0  0  0  0  0
  -21.1170   -7.2659  -32.3875 H   0  0  0  0  0  0  0  0  0  0  0  0
  -20.0277   -5.9185  -32.1449 H   0  0  0  0  0  0  0  0  0  0  0  0
  -21.5770   -1.0078  -30.4093 H   0  0  0  0  0  0  0  0  0  0  0  0
  -21.2614   -1.8391  -31.9701 H   0  0  0  0  0  0  0  0  0  0  0  0
  -23.8046   -0.6296  -32.1296 H   0  0  0  0  0  0  0  0  0  0  0  0
  -17.4566   -6.9539  -37.9083 H   0  0  0  0  0  0  0  0  0  0  0  0
  1  5  1  0  0  0  0
  1 11  2  0  0  0  0
  2  6  1  0  0  0  0
  2 12  2  0  0  0  0
  3  7  1  0  0  0  0
  3 14  2  0  0  0  0
  4  8  2  0  0  0  0
  4 14  1  0  0  0  0
  5 15  2  0  0  0  0
  6 17  2  0  0  0  0
  7 16  2  0  0  0  0
  8 16  1  0  0  0  0
  9 11  1  0  0  0  0
  9 18  2  0  0  0  0
 10 13  2  0  0  0  0
 10 17  1  0  0  0  0
 11 30  1  0  0  0  0
 12 13  1  0  0  0  0
 12 32  1  0  0  0  0
 13 33  1  0  0  0  0
 14 35  1  0  0  0  0
 15 18  1  0  0  0  0
 15 38  1  0  0  0  0
 16 39  1  0  0  0  0
 17 40  1  0  0  0  0
 18 41  1  0  0  0  0
 19 30  1  0  0  0  0
 19 34  1  0  0  0  0
 19 36  2  0  0  0  0
 20 26  1  0  0  0  0
 20 32  1  0  0  0  0
 21 27  1  0  0  0  0
 21 32  1  0  0  0  0
 22 28  1  0  0  0  0
 22 34  1  0  0  0  0
 23 29  1  0  0  0  0
 23 33  1  0  0  0  0
 24 29  1  0  0  0  0
 24 33  1  0  0  0  0
 25 29  1  0  0  0  0
 25 34  1  0  0  0  0
 26 37  1  0  0  0  0
 27 37  1  0  0  0  0
 28 29  1  0  0  0  0
 28 31  1  0  0  0  0
 31 35  1  0  0  0  0
  1 42  1  0  0  0  0
  2 43  1  0  0  0  0
  3 44  1  0  0  0  0
  4 45  1  0  0  0  0
  5 46  1  0  0  0  0
  6 47  1  0  0  0  0
  7 48  1  0  0  0  0
  8 49  1  0  0  0  0
  9 50  1  0  0  0  0
 10 51  1  0  0  0  0
 20 52  1  0  0  0  0
 20 53  1  0  0  0  0
 21 54  1  0  0  0  0
 21 55  1  0  0  0  0
 22 56  1  0  0  0  0
 22 57  1  0  0  0  0
 23 58  1  0  0  0  0
 23 59  1  0  0  0  0
 24 60  1  0  0  0  0
 24 61  1  0  0  0  0
 25 62  1  0  0  0  0
 25 63  1  0  0  0  0
 26 64  1  0  0  0  0
 26 65  1  0  0  0  0
 27 66  1  0  0  0  0
 27 67  1  0  0  0  0
 28 68  1  0  0  0  0
 30 69  1  0  0  0  0
 30 70  1  0  0  0  0
 31 71  1  0  0  0  0
 31 72  1  0  0  0  0
 35 73  1  0  0  0  0
 38 74  1  0  0  0  0
M  END
> <SMILES>
Oc1ccc(cc1F)CC(=O)N1CC(CNc2ccc(cc2)F)C2(C1)CN(C2)c1cc(ccc1N1CCOCC1)F

> <FORMATTED_ID>
H3D-008367

> <MOLFORMULA>
C31H33F3N4O3

> <Exact Mass>
566.25

> <XLogP>
3.56

> <TPSA_NOPS>
68.3

> <s_m_source_file>
ligprep_h3d.sdf

> <i_m_source_file_index>
4914

> <i_lp_mmshare_version>
55123

> <i_f3d_flags>
0

> <s_epik_input>
W09IXWMxW2NIXVtjSF1jKFtjSF1jMUYpW0NIMl1DKD1PKU4oW0NIMl0yKVtDSDJdW0NASF0oW0NIMl1bTkhdYzNbY0hdW2NIXWMoRilbY0hdW2NIXTMpQzI0W0NIMl1OKFtDSDJdNCljNVtjSF1jKEYpW2NIXVtjSF1jNU42W0NIMl1bQ0gyXU9bQ0gyXVtDSDJdNg==

> <s_epik_cmdline>
J2VwaWtfcHl0aG9uJywgJy1waHQnLCAnMC41JywgJy1waCcsICc3LjUnLCAnLXRuJywgJzgnLCAnLW1hJywgJzUwMCcsICctaW1hZScsICc8aW5maWxlLm1hZT4nLCAnLW9tYWUnLCAnPG91dGZpbGUubWFlPic=

> <r_lp_tautomer_probability>
1

> <r_epik_Ionization_Penalty>
0.0703634

> <r_epik_Ionization_Penalty_Charging>
0

> <r_epik_Ionization_Penalty_Neutral>
0.0703634

> <r_epik_State_Penalty>
0.0583657

> <r_epik_Charging_Adjusted_Penalty>
0.0583657

> <i_epik_Tot_Q>
0

> <i_epik_Tot_abs_Q>
0

> <s_lp_Force_Field>
S-OPLS

> <r_lp_Energy>
63.0248

> <b_lp_Chiralities_Consistent>
1

> <s_lp_Variant>
ligprep_h3d.sdf:4914-1

> <ROCS_ShapeQuery>
_7L13

> <ROCS_TanimotoCombo>
0.640 

> <ROCS_ShapeTanimoto>
0.586 

> <ROCS_ColorTanimoto>
0.055 

> <ROCS_RefTversky>
0.783 

> <ROCS_RefColorTversky>
0.114 

> <ROCS_RefTverskyCombo>
0.897 

> <ROCS_FitTversky>
0.699 

> <ROCS_FitColorTversky>
0.095 

> <ROCS_FitTverskyCombo>
0.795 

> <ROCS_ColorScore>
-1.041

> <ROCS_Overlap>
1308.656

> <ROCS_Rank>
326                 

$$$$
ligprep_h3d.sdf:5095_616
  -OEChem-08212117123D

 68 73  0     0  0  0  0  0  0999 V2000
  -19.3193   -5.4533  -34.7814 C   0  0  0  0  0  0  0  0  0  0  0  0
  -20.0445   -4.2628  -34.8289 C   0  0  0  0  0  0  0  0  0  0  0  0
  -19.4935   -6.3339  -33.7138 C   0  0  0  0  0  0  0  0  0  0  0  0
  -16.7917   -2.6114  -26.1359 C   0  0  0  0  0  0  0  0  0  0  0  0
  -18.0840   -3.1333  -26.1483 C   0  0  0  0  0  0  0  0  0  0  0  0
  -20.9438   -3.9527  -33.8088 C   0  0  0  0  0  0  0  0  0  0  0  0
  -20.3928   -6.0239  -32.6936 C   0  0  0  0  0  0  0  0  0  0  0  0
  -23.6101   -3.7783  -27.6989 C   0  0  0  0  0  0  0  0  0  0  0  0
  -20.9595   -4.4368  -28.3831 C   0  0  0  0  0  0  0  0  0  0  0  0
  -15.7332   -3.4564  -25.8307 C   0  0  0  0  0  0  0  0  0  0  0  0
  -18.8332   -6.6320  -25.4147 C   0  0  0  0  0  0  0  0  0  0  0  0
  -18.2437   -4.4959  -25.8489 C   0  0  0  0  0  0  0  0  0  0  0  0
  -22.7293   -4.2842  -26.7504 C   0  0  0  0  0  0  0  0  0  0  0  0
  -21.1180   -4.8333  -32.7411 C   0  0  0  0  0  0  0  0  0  0  0  0
  -21.4019   -4.5991  -27.0761 C   0  0  0  0  0  0  0  0  0  0  0  0
  -19.3385   -5.3952  -25.7534 C   0  0  0  0  0  0  0  0  0  0  0  0
  -23.1572   -3.6043  -29.0051 C   0  0  0  0  0  0  0  0  0  0  0  0
  -21.8412   -3.9357  -29.3459 C   0  0  0  0  0  0  0  0  0  0  0  0
  -17.0950   -5.2272  -25.5608 C   0  0  0  0  0  0  0  0  0  0  0  0
  -23.0073   -3.2078  -24.5077 C   0  0  0  0  0  0  0  0  0  0  0  0
  -24.2700   -5.3350  -25.0236 C   0  0  0  0  0  0  0  0  0  0  0  0
  -21.7104   -5.3868  -24.9381 C   0  0  0  0  0  0  0  0  0  0  0  0
  -23.3349   -3.3802  -23.0280 C   0  0  0  0  0  0  0  0  0  0  0  0
  -24.5465   -5.5178  -23.5370 C   0  0  0  0  0  0  0  0  0  0  0  0
  -22.9779   -4.5412  -25.2841 C   0  0  0  0  0  0  0  0  0  0  0  0
  -16.5802   -7.6038  -24.9565 C   0  0  0  0  0  0  0  0  0  0  0  0
  -25.0302   -4.2705  -21.4339 C   0  0  0  0  0  0  0  0  0  0  0  0
  -24.0434   -1.6943  -30.1107 C   0  0  0  0  0  0  0  0  0  0  0  0
  -22.0850   -4.5002  -31.6432 C   0  0  0  0  0  0  0  0  0  0  0  0
  -15.8276   -4.7736  -25.5350 N   0  0  0  0  0  0  0  0  0  0  0  0
  -17.4719   -6.5184  -25.3001 N   0  0  0  0  0  0  0  0  0  0  0  0
  -20.6881   -5.0958  -25.9621 N   0  0  0  0  0  0  0  0  0  0  0  0
  -24.6151   -4.1628  -22.8757 N   0  3  0  0  0  0  0  0  0  0  0  0
  -24.0095   -3.1104  -29.9470 O   0  0  0  0  0  0  0  0  0  0  0  0
  -21.4017   -3.7712  -30.6265 O   0  0  0  0  0  0  0  0  0  0  0  0
  -18.6201   -5.6952  -35.5765 H   0  0  0  0  0  0  0  0  0  0  0  0
  -19.9098   -3.5775  -35.6607 H   0  0  0  0  0  0  0  0  0  0  0  0
  -18.9299   -7.2615  -33.6770 H   0  0  0  0  0  0  0  0  0  0  0  0
  -16.6172   -1.5644  -26.3597 H   0  0  0  0  0  0  0  0  0  0  0  0
  -18.9336   -2.4998  -26.3820 H   0  0  0  0  0  0  0  0  0  0  0  0
  -21.5043   -3.0227  -33.8540 H   0  0  0  0  0  0  0  0  0  0  0  0
  -20.5219   -6.7159  -31.8656 H   0  0  0  0  0  0  0  0  0  0  0  0
  -24.6289   -3.5168  -27.4314 H   0  0  0  0  0  0  0  0  0  0  0  0
  -19.9399   -4.6898  -28.6597 H   0  0  0  0  0  0  0  0  0  0  0  0
  -14.7189   -3.0663  -25.8171 H   0  0  0  0  0  0  0  0  0  0  0  0
  -19.3259   -7.5809  -25.2466 H   0  0  0  0  0  0  0  0  0  0  0  0
  -23.7557   -2.5370  -24.9523 H   0  0  0  0  0  0  0  0  0  0  0  0
  -22.0457   -2.6860  -24.5996 H   0  0  0  0  0  0  0  0  0  0  0  0
  -24.2239   -6.3188  -25.5077 H   0  0  0  0  0  0  0  0  0  0  0  0
  -25.1292   -4.8218  -25.4751 H   0  0  0  0  0  0  0  0  0  0  0  0
  -21.3248   -5.1728  -23.9353 H   0  0  0  0  0  0  0  0  0  0  0  0
  -21.9392   -6.4611  -24.9761 H   0  0  0  0  0  0  0  0  0  0  0  0
  -22.5500   -3.9182  -22.4867 H   0  0  0  0  0  0  0  0  0  0  0  0
  -23.4904   -2.4039  -22.5565 H   0  0  0  0  0  0  0  0  0  0  0  0
  -25.5155   -6.0053  -23.3863 H   0  0  0  0  0  0  0  0  0  0  0  0
  -23.7652   -6.0982  -23.0345 H   0  0  0  0  0  0  0  0  0  0  0  0
  -16.2680   -8.0904  -25.8842 H   0  0  0  0  0  0  0  0  0  0  0  0
  -15.7126   -7.2070  -24.4221 H   0  0  0  0  0  0  0  0  0  0  0  0
  -17.1057   -8.3123  -24.3100 H   0  0  0  0  0  0  0  0  0  0  0  0
  -24.2590   -4.8340  -20.9056 H   0  0  0  0  0  0  0  0  0  0  0  0
  -25.1192   -3.2581  -21.0353 H   0  0  0  0  0  0  0  0  0  0  0  0
  -25.9891   -4.7912  -21.4003 H   0  0  0  0  0  0  0  0  0  0  0  0
  -24.7626   -1.4341  -30.8913 H   0  0  0  0  0  0  0  0  0  0  0  0
  -23.0481   -1.3341  -30.3827 H   0  0  0  0  0  0  0  0  0  0  0  0
  -24.3501   -1.2347  -29.1681 H   0  0  0  0  0  0  0  0  0  0  0  0
  -22.9141   -3.8930  -32.0222 H   0  0  0  0  0  0  0  0  0  0  0  0
  -22.5075   -5.4126  -31.2086 H   0  0  0  0  0  0  0  0  0  0  0  0
  -25.3559   -3.6292  -23.3507 H   0  0  0  0  0  0  0  0  0  0  0  0
  1  2  2  0  0  0  0
  1  3  1  0  0  0  0
  2  6  1  0  0  0  0
  3  7  2  0  0  0  0
  4  5  1  0  0  0  0
  4 10  2  0  0  0  0
  5 12  2  0  0  0  0
  6 14  2  0  0  0  0
  7 14  1  0  0  0  0
  8 13  1  0  0  0  0
  8 17  2  0  0  0  0
  9 15  1  0  0  0  0
  9 18  2  0  0  0  0
 10 30  1  0  0  0  0
 11 16  2  0  0  0  0
 11 31  1  0  0  0  0
 12 16  1  0  0  0  0
 12 19  1  0  0  0  0
 13 15  2  0  0  0  0
 13 25  1  0  0  0  0
 14 29  1  0  0  0  0
 15 32  1  0  0  0  0
 16 32  1  0  0  0  0
 17 18  1  0  0  0  0
 17 34  1  0  0  0  0
 18 35  1  0  0  0  0
 19 30  2  0  0  0  0
 19 31  1  0  0  0  0
 20 23  1  0  0  0  0
 20 25  1  0  0  0  0
 21 24  1  0  0  0  0
 21 25  1  0  0  0  0
 22 25  1  0  0  0  0
 22 32  1  0  0  0  0
 23 33  1  0  0  0  0
 24 33  1  0  0  0  0
 26 31  1  0  0  0  0
 27 33  1  0  0  0  0
 28 34  1  0  0  0  0
 29 35  1  0  0  0  0
  1 36  1  0  0  0  0
  2 37  1  0  0  0  0
  3 38  1  0  0  0  0
  4 39  1  0  0  0  0
  5 40  1  0  0  0  0
  6 41  1  0  0  0  0
  7 42  1  0  0  0  0
  8 43  1  0  0  0  0
  9 44  1  0  0  0  0
 10 45  1  0  0  0  0
 11 46  1  0  0  0  0
 20 47  1  0  0  0  0
 20 48  1  0  0  0  0
 21 49  1  0  0  0  0
 21 50  1  0  0  0  0
 22 51  1  0  0  0  0
 22 52  1  0  0  0  0
 23 53  1  0  0  0  0
 23 54  1  0  0  0  0
 24 55  1  0  0  0  0
 24 56  1  0  0  0  0
 26 57  1  0  0  0  0
 26 58  1  0  0  0  0
 26 59  1  0  0  0  0
 27 60  1  0  0  0  0
 27 61  1  0  0  0  0
 27 62  1  0  0  0  0
 28 63  1  0  0  0  0
 28 64  1  0  0  0  0
 28 65  1  0  0  0  0
 29 66  1  0  0  0  0
 29 67  1  0  0  0  0
 33 68  1  0  0  0  0
M  CHG  1  33   1
M  END
> <SMILES>
COc1cc2c(cc1OCc1ccccc1)N(CC12CCN(C)CC1)c1cn(c2ncccc12)C

> <FORMATTED_ID>
H3D-012536

> <MOLFORMULA>
C29H32N4O2

> <Exact Mass>
468.25

> <XLogP>
6.15

> <TPSA_NOPS>
42.8

> <s_m_source_file>
ligprep_h3d.sdf

> <i_m_source_file_index>
5095

> <i_lp_mmshare_version>
55123

> <i_f3d_flags>
0

> <s_epik_input>
W2NIXTFbY0hdW2NIXVtjSF1bY0hdYzFbQ0gyXU9jKGMoW2NIXTIpT1tDSDNdKVtjSF1jKE4oW0NIMl0zKWMoW2NIXW40W0NIM10pYyhjNDUpW2NIXVtjSF1bY0hdbjUpYzJDMzZbQ0gyXVtDSDJdTihbQ0gzXSlbQ0gyXVtDSDJdNg==

> <s_epik_cmdline>
J2VwaWtfcHl0aG9uJywgJy1waHQnLCAnMC41JywgJy1waCcsICc3LjUnLCAnLXRuJywgJzgnLCAnLW1hJywgJzUwMCcsICctaW1hZScsICc8aW5maWxlLm1hZT4nLCAnLW9tYWUnLCAnPG91dGZpbGUubWFlPic=

> <r_lp_tautomer_probability>
1

> <r_epik_Ionization_Penalty>
0.0101605

> <r_epik_Ionization_Penalty_Charging>
0.00689193

> <r_epik_Ionization_Penalty_Neutral>
0.00326855

> <r_epik_State_Penalty>
-0

> <r_epik_Charging_Adjusted_Penalty>
0.00689193

> <i_epik_Tot_Q>
1

> <i_epik_Tot_abs_Q>
1

> <s_lp_Force_Field>
S-OPLS

> <r_lp_Energy>
71.8123

> <b_lp_Chiralities_Consistent>
1

> <s_lp_Variant>
ligprep_h3d.sdf:5095-1

> <ROCS_ShapeQuery>
_7L13

> <ROCS_TanimotoCombo>
0.755 

> <ROCS_ShapeTanimoto>
0.652 

> <ROCS_ColorTanimoto>
0.103 

> <ROCS_RefTversky>
0.783 

> <ROCS_RefColorTversky>
0.205 

> <ROCS_RefTverskyCombo>
0.988 

> <ROCS_FitTversky>
0.797 

> <ROCS_FitColorTversky>
0.170 

> <ROCS_FitTverskyCombo>
0.967 

> <ROCS_ColorScore>
-1.865

> <ROCS_Overlap>
1298.674

> <ROCS_Rank>
327                 

$$$$
ligprep_h3d.sdf:5882_1406
  -OEChem-08212117123D

 53 57  0     0  0  0  0  0  0999 V2000
  -19.7433   -8.5579  -35.0072 C   0  0  0  0  0  0  0  0  0  0  0  0
  -18.8615   -7.9896  -35.9264 C   0  0  0  0  0  0  0  0  0  0  0  0
  -19.7686   -5.1457  -25.7468 C   0  0  0  0  0  0  0  0  0  0  0  0
  -20.4120   -7.7477  -34.0894 C   0  0  0  0  0  0  0  0  0  0  0  0
  -20.9801   -5.0990  -25.0572 C   0  0  0  0  0  0  0  0  0  0  0  0
  -19.6995   -4.6988  -27.0664 C   0  0  0  0  0  0  0  0  0  0  0  0
  -18.6483   -6.6111  -35.9279 C   0  0  0  0  0  0  0  0  0  0  0  0
  -23.7080   -3.5330  -32.0836 C   0  0  0  0  0  0  0  0  0  0  0  0
  -20.5176   -5.1793  -31.8627 C   0  0  0  0  0  0  0  0  0  0  0  0
  -22.0536   -4.1588  -27.0067 C   0  0  0  0  0  0  0  0  0  0  0  0
  -23.4396   -4.3886  -23.6029 C   0  0  0  0  0  0  0  0  0  0  0  0
  -24.5950   -4.6770  -25.6124 C   0  0  0  0  0  0  0  0  0  0  0  0
  -23.8051   -2.9181  -30.8502 C   0  0  0  0  0  0  0  0  0  0  0  0
  -25.7110   -4.4677  -23.6432 C   0  0  0  0  0  0  0  0  0  0  0  0
  -21.5480   -4.3633  -31.3104 C   0  0  0  0  0  0  0  0  0  0  0  0
  -22.1226   -4.6056  -25.6871 C   0  0  0  0  0  0  0  0  0  0  0  0
  -20.1987   -6.3693  -34.0909 C   0  0  0  0  0  0  0  0  0  0  0  0
  -23.3790   -4.5572  -24.9712 C   0  0  0  0  0  0  0  0  0  0  0  0
  -22.5426   -4.2620  -32.2832 C   0  0  0  0  0  0  0  0  0  0  0  0
  -20.8421   -4.2054  -27.6963 C   0  0  0  0  0  0  0  0  0  0  0  0
  -19.3169   -5.8009  -35.0101 C   0  0  0  0  0  0  0  0  0  0  0  0
  -20.9017   -5.5470  -33.1313 C   0  0  0  0  0  0  0  0  0  0  0  0
  -21.6997   -3.7207  -30.0824 C   0  0  0  0  0  0  0  0  0  0  0  0
  -22.8830   -5.1327  -34.6037 C   0  0  0  0  0  0  0  0  0  0  0  0
  -18.0259   -3.9665  -34.2201 C   0  0  0  0  0  0  0  0  0  0  0  0
  -24.5926   -4.3390  -22.9041 N   0  0  0  0  0  0  0  0  0  0  0  0
  -25.7846   -4.6368  -24.9772 N   0  0  0  0  0  0  0  0  0  0  0  0
  -22.1261   -4.9878  -33.3759 N   0  0  0  0  0  0  0  0  0  0  0  0
  -22.8356   -3.0333  -29.9383 N   0  3  0  0  0  0  0  0  0  0  0  0
  -20.7715   -3.7523  -29.0363 N   0  0  0  0  0  0  0  0  0  0  0  0
  -19.0889   -4.4566  -35.0338 O   0  0  0  0  0  0  0  0  0  0  0  0
  -19.9087   -9.6315  -35.0054 H   0  0  0  0  0  0  0  0  0  0  0  0
  -18.3413   -8.6204  -36.6413 H   0  0  0  0  0  0  0  0  0  0  0  0
  -18.8790   -5.5298  -25.2561 H   0  0  0  0  0  0  0  0  0  0  0  0
  -21.0963   -8.2071  -33.3803 H   0  0  0  0  0  0  0  0  0  0  0  0
  -21.0178   -5.4516  -24.0291 H   0  0  0  0  0  0  0  0  0  0  0  0
  -18.7501   -4.7394  -27.5944 H   0  0  0  0  0  0  0  0  0  0  0  0
  -17.9603   -6.1750  -36.6470 H   0  0  0  0  0  0  0  0  0  0  0  0
  -24.4856   -3.4481  -32.8318 H   0  0  0  0  0  0  0  0  0  0  0  0
  -19.5933   -5.4641  -31.3768 H   0  0  0  0  0  0  0  0  0  0  0  0
  -22.9426   -3.7732  -27.5023 H   0  0  0  0  0  0  0  0  0  0  0  0
  -22.5414   -4.2809  -23.0020 H   0  0  0  0  0  0  0  0  0  0  0  0
  -24.6606   -4.8123  -26.6880 H   0  0  0  0  0  0  0  0  0  0  0  0
  -24.6553   -2.3178  -30.5540 H   0  0  0  0  0  0  0  0  0  0  0  0
  -26.6518   -4.4318  -23.1077 H   0  0  0  0  0  0  0  0  0  0  0  0
  -22.5953   -4.3195  -35.2752 H   0  0  0  0  0  0  0  0  0  0  0  0
  -22.6577   -6.1015  -35.0581 H   0  0  0  0  0  0  0  0  0  0  0  0
  -23.9517   -5.0832  -34.3774 H   0  0  0  0  0  0  0  0  0  0  0  0
  -17.9513   -2.8820  -34.3310 H   0  0  0  0  0  0  0  0  0  0  0  0
  -17.0877   -4.4396  -34.5209 H   0  0  0  0  0  0  0  0  0  0  0  0
  -18.2362   -4.2101  -33.1760 H   0  0  0  0  0  0  0  0  0  0  0  0
  -22.9728   -2.5530  -29.0486 H   0  0  0  0  0  0  0  0  0  0  0  0
  -19.8549   -3.3750  -29.2787 H   0  0  0  0  0  0  0  0  0  0  0  0
  1  2  2  0  0  0  0
  1  4  1  0  0  0  0
  2  7  1  0  0  0  0
  3  5  2  0  0  0  0
  3  6  1  0  0  0  0
  4 17  2  0  0  0  0
  5 16  1  0  0  0  0
  6 20  2  0  0  0  0
  7 21  2  0  0  0  0
  8 13  1  0  0  0  0
  8 19  2  0  0  0  0
  9 15  1  0  0  0  0
  9 22  2  0  0  0  0
 10 16  2  0  0  0  0
 10 20  1  0  0  0  0
 11 18  2  0  0  0  0
 11 26  1  0  0  0  0
 12 18  1  0  0  0  0
 12 27  2  0  0  0  0
 13 29  2  0  0  0  0
 14 26  2  0  0  0  0
 14 27  1  0  0  0  0
 15 19  1  0  0  0  0
 15 23  2  0  0  0  0
 16 18  1  0  0  0  0
 17 21  1  0  0  0  0
 17 22  1  0  0  0  0
 19 28  1  0  0  0  0
 20 30  1  0  0  0  0
 21 31  1  0  0  0  0
 22 28  1  0  0  0  0
 23 29  1  0  0  0  0
 23 30  1  0  0  0  0
 24 28  1  0  0  0  0
 25 31  1  0  0  0  0
  1 32  1  0  0  0  0
  2 33  1  0  0  0  0
  3 34  1  0  0  0  0
  4 35  1  0  0  0  0
  5 36  1  0  0  0  0
  6 37  1  0  0  0  0
  7 38  1  0  0  0  0
  8 39  1  0  0  0  0
  9 40  1  0  0  0  0
 10 41  1  0  0  0  0
 11 42  1  0  0  0  0
 12 43  1  0  0  0  0
 13 44  1  0  0  0  0
 14 45  1  0  0  0  0
 24 46  1  0  0  0  0
 24 47  1  0  0  0  0
 24 48  1  0  0  0  0
 25 49  1  0  0  0  0
 25 50  1  0  0  0  0
 25 51  1  0  0  0  0
 29 52  1  0  0  0  0
 30 53  1  0  0  0  0
M  CHG  1  29   1
M  END
> <SMILES>
COc1ccccc1-c1cc2c(nccc2n1C)Nc1cccc(c1)-c1cncnc1

> <FORMATTED_ID>
H3D-000188

> <MOLFORMULA>
C25H21N5O

> <Exact Mass>
407.17

> <XLogP>
5.32

> <TPSA_NOPS>
64.9

> <s_m_source_file>
ligprep_h3d.sdf

> <i_m_source_file_index>
5882

> <i_lp_mmshare_version>
55123

> <i_f3d_flags>
0

> <s_epik_input>
W0NIM11PYzFbY0hdW2NIXVtjSF1bY0hdYzEtYyhbY0hdMiluKFtDSDNdKWMoYzIzKVtjSF1bY0hdbmMzW05IXWM0W2NIXVtjSF1bY0hdYyhbY0hdNCktYzVbY0hdbltjSF1uW2NIXTU=

> <s_epik_cmdline>
J2VwaWtfcHl0aG9uJywgJy1waHQnLCAnMC41JywgJy1waCcsICc3LjUnLCAnLXRuJywgJzgnLCAnLW1hJywgJzUwMCcsICctaW1hZScsICc8aW5maWxlLm1hZT4nLCAnLW9tYWUnLCAnPG91dGZpbGUubWFlPic=

> <r_lp_tautomer_probability>
1

> <r_epik_Ionization_Penalty>
0.0645151

> <r_epik_Ionization_Penalty_Charging>
0.0614281

> <r_epik_Ionization_Penalty_Neutral>
0.00308699

> <r_epik_State_Penalty>
0.0533191

> <r_epik_Charging_Adjusted_Penalty>
0.114747

> <i_epik_Tot_Q>
1

> <i_epik_Tot_abs_Q>
1

> <s_lp_Force_Field>
S-OPLS

> <r_lp_Energy>
61.4946

> <b_lp_Chiralities_Consistent>
1

> <s_lp_Variant>
ligprep_h3d.sdf:5882-1

> <ROCS_ShapeQuery>
_7L13

> <ROCS_TanimotoCombo>
0.844 

> <ROCS_ShapeTanimoto>
0.705 

> <ROCS_ColorTanimoto>
0.139 

> <ROCS_RefTversky>
0.783 

> <ROCS_RefColorTversky>
0.268 

> <ROCS_RefTverskyCombo>
1.051 

> <ROCS_FitTversky>
0.877 

> <ROCS_FitColorTversky>
0.223 

> <ROCS_FitTverskyCombo>
1.100 

> <ROCS_ColorScore>
-2.438

> <ROCS_Overlap>
1292.075

> <ROCS_Rank>
328                 

$$$$
ligprep_h3d.sdf:5151_1329
  -OEChem-08212117123D

 67 72  0     0  0  0  0  0  0999 V2000
  -19.6122   -6.5454  -34.7230 C   0  0  0  0  0  0  0  0  0  0  0  0
  -20.7196   -7.2892  -34.3156 C   0  0  0  0  0  0  0  0  0  0  0  0
  -19.3390   -5.3159  -34.1234 C   0  0  0  0  0  0  0  0  0  0  0  0
  -18.1377   -7.7365  -25.5476 C   0  0  0  0  0  0  0  0  0  0  0  0
  -16.8805   -2.8810  -25.7549 C   0  0  0  0  0  0  0  0  0  0  0  0
  -18.0905   -3.5561  -25.8270 C   0  0  0  0  0  0  0  0  0  0  0  0
  -21.5539   -6.8036  -33.3088 C   0  0  0  0  0  0  0  0  0  0  0  0
  -20.1733   -4.8302  -33.1166 C   0  0  0  0  0  0  0  0  0  0  0  0
  -16.9360   -7.0272  -25.4785 C   0  0  0  0  0  0  0  0  0  0  0  0
  -19.3379   -7.0560  -25.7110 C   0  0  0  0  0  0  0  0  0  0  0  0
  -23.4763   -3.7422  -27.7472 C   0  0  0  0  0  0  0  0  0  0  0  0
  -20.9064   -4.6570  -28.4439 C   0  0  0  0  0  0  0  0  0  0  0  0
  -15.7370   -3.6365  -25.5922 C   0  0  0  0  0  0  0  0  0  0  0  0
  -18.1242   -4.9541  -25.7353 C   0  0  0  0  0  0  0  0  0  0  0  0
  -22.5782   -4.1661  -26.7750 C   0  0  0  0  0  0  0  0  0  0  0  0
  -21.2807   -5.5741  -32.7092 C   0  0  0  0  0  0  0  0  0  0  0  0
  -16.9019   -5.6385  -25.5697 C   0  0  0  0  0  0  0  0  0  0  0  0
  -19.3331   -5.6672  -25.8048 C   0  0  0  0  0  0  0  0  0  0  0  0
  -21.3020   -4.6402  -27.1121 C   0  0  0  0  0  0  0  0  0  0  0  0
  -23.0796   -3.7743  -29.0825 C   0  0  0  0  0  0  0  0  0  0  0  0
  -21.8009   -4.2250  -29.4282 C   0  0  0  0  0  0  0  0  0  0  0  0
  -23.3575   -2.9447  -24.6868 C   0  0  0  0  0  0  0  0  0  0  0  0
  -23.6887   -5.4386  -24.9278 C   0  0  0  0  0  0  0  0  0  0  0  0
  -21.3068   -4.4744  -24.8188 C   0  0  0  0  0  0  0  0  0  0  0  0
  -23.6309   -3.0647  -23.1932 C   0  0  0  0  0  0  0  0  0  0  0  0
  -24.0073   -5.5331  -23.4391 C   0  0  0  0  0  0  0  0  0  0  0  0
  -22.7810   -4.2414  -25.2813 C   0  0  0  0  0  0  0  0  0  0  0  0
  -24.9945   -4.3004  -21.5122 C   0  0  0  0  0  0  0  0  0  0  0  0
  -23.9187   -1.9841  -30.4041 C   0  0  0  0  0  0  0  0  0  0  0  0
  -22.1779   -5.0509  -31.6262 C   0  0  0  0  0  0  0  0  0  0  0  0
  -15.7261   -4.9860  -25.4994 N   0  0  0  0  0  0  0  0  0  0  0  0
  -20.5598   -5.0173  -25.9700 N   0  0  0  0  0  0  0  0  0  0  0  0
  -24.5704   -4.2212  -22.9531 N   0  3  0  0  0  0  0  0  0  0  0  0
  -23.9504   -3.3643  -30.0475 O   0  0  0  0  0  0  0  0  0  0  0  0
  -21.4105   -4.2456  -30.7348 O   0  0  0  0  0  0  0  0  0  0  0  0
  -18.9620   -6.9243  -35.5061 H   0  0  0  0  0  0  0  0  0  0  0  0
  -20.9319   -8.2470  -34.7816 H   0  0  0  0  0  0  0  0  0  0  0  0
  -18.4763   -4.7370  -34.4396 H   0  0  0  0  0  0  0  0  0  0  0  0
  -18.1323   -8.8199  -25.4734 H   0  0  0  0  0  0  0  0  0  0  0  0
  -16.8364   -1.8004  -25.8240 H   0  0  0  0  0  0  0  0  0  0  0  0
  -18.9971   -2.9698  -25.9551 H   0  0  0  0  0  0  0  0  0  0  0  0
  -22.4146   -7.3899  -32.9979 H   0  0  0  0  0  0  0  0  0  0  0  0
  -19.9527   -3.8713  -32.6552 H   0  0  0  0  0  0  0  0  0  0  0  0
  -16.0093   -7.5839  -25.3510 H   0  0  0  0  0  0  0  0  0  0  0  0
  -20.2675   -7.6159  -25.7642 H   0  0  0  0  0  0  0  0  0  0  0  0
  -24.4656   -3.3876  -27.4759 H   0  0  0  0  0  0  0  0  0  0  0  0
  -19.9127   -4.9953  -28.7234 H   0  0  0  0  0  0  0  0  0  0  0  0
  -14.7627   -3.1635  -25.5288 H   0  0  0  0  0  0  0  0  0  0  0  0
  -24.2959   -2.6897  -25.1917 H   0  0  0  0  0  0  0  0  0  0  0  0
  -22.6791   -2.1030  -24.8580 H   0  0  0  0  0  0  0  0  0  0  0  0
  -23.2279   -6.3816  -25.2602 H   0  0  0  0  0  0  0  0  0  0  0  0
  -24.6385   -5.3696  -25.4811 H   0  0  0  0  0  0  0  0  0  0  0  0
  -20.8331   -3.5580  -24.4502 H   0  0  0  0  0  0  0  0  0  0  0  0
  -21.2703   -5.2107  -24.0035 H   0  0  0  0  0  0  0  0  0  0  0  0
  -22.7232   -3.2485  -22.6144 H   0  0  0  0  0  0  0  0  0  0  0  0
  -24.1228   -2.1623  -22.8218 H   0  0  0  0  0  0  0  0  0  0  0  0
  -24.7686   -6.3033  -23.2610 H   0  0  0  0  0  0  0  0  0  0  0  0
  -23.1185   -5.7619  -22.8366 H   0  0  0  0  0  0  0  0  0  0  0  0
  -24.1040   -4.4968  -20.9123 H   0  0  0  0  0  0  0  0  0  0  0  0
  -25.4457   -3.3434  -21.2436 H   0  0  0  0  0  0  0  0  0  0  0  0
  -25.7165   -5.1142  -21.4207 H   0  0  0  0  0  0  0  0  0  0  0  0
  -24.6608   -1.7910  -31.1826 H   0  0  0  0  0  0  0  0  0  0  0  0
  -22.9206   -1.7227  -30.7644 H   0  0  0  0  0  0  0  0  0  0  0  0
  -24.1544   -1.3836  -29.5223 H   0  0  0  0  0  0  0  0  0  0  0  0
  -22.9879   -4.4455  -32.0469 H   0  0  0  0  0  0  0  0  0  0  0  0
  -22.6307   -5.8759  -31.0656 H   0  0  0  0  0  0  0  0  0  0  0  0
  -25.4248   -4.0360  -23.4964 H   0  0  0  0  0  0  0  0  0  0  0  0
  1  2  2  0  0  0  0
  1  3  1  0  0  0  0
  2  7  1  0  0  0  0
  3  8  2  0  0  0  0
  4  9  2  0  0  0  0
  4 10  1  0  0  0  0
  5  6  1  0  0  0  0
  5 13  2  0  0  0  0
  6 14  2  0  0  0  0
  7 16  2  0  0  0  0
  8 16  1  0  0  0  0
  9 17  1  0  0  0  0
 10 18  2  0  0  0  0
 11 15  1  0  0  0  0
 11 20  2  0  0  0  0
 12 19  1  0  0  0  0
 12 21  2  0  0  0  0
 13 31  1  0  0  0  0
 14 17  1  0  0  0  0
 14 18  1  0  0  0  0
 15 19  2  0  0  0  0
 15 27  1  0  0  0  0
 16 30  1  0  0  0  0
 17 31  2  0  0  0  0
 18 32  1  0  0  0  0
 19 32  1  0  0  0  0
 20 21  1  0  0  0  0
 20 34  1  0  0  0  0
 21 35  1  0  0  0  0
 22 25  1  0  0  0  0
 22 27  1  0  0  0  0
 23 26  1  0  0  0  0
 23 27  1  0  0  0  0
 24 27  1  0  0  0  0
 24 32  1  0  0  0  0
 25 33  1  0  0  0  0
 26 33  1  0  0  0  0
 28 33  1  0  0  0  0
 29 34  1  0  0  0  0
 30 35  1  0  0  0  0
  1 36  1  0  0  0  0
  2 37  1  0  0  0  0
  3 38  1  0  0  0  0
  4 39  1  0  0  0  0
  5 40  1  0  0  0  0
  6 41  1  0  0  0  0
  7 42  1  0  0  0  0
  8 43  1  0  0  0  0
  9 44  1  0  0  0  0
 10 45  1  0  0  0  0
 11 46  1  0  0  0  0
 12 47  1  0  0  0  0
 13 48  1  0  0  0  0
 22 49  1  0  0  0  0
 22 50  1  0  0  0  0
 23 51  1  0  0  0  0
 23 52  1  0  0  0  0
 24 53  1  0  0  0  0
 24 54  1  0  0  0  0
 25 55  1  0  0  0  0
 25 56  1  0  0  0  0
 26 57  1  0  0  0  0
 26 58  1  0  0  0  0
 28 59  1  0  0  0  0
 28 60  1  0  0  0  0
 28 61  1  0  0  0  0
 29 62  1  0  0  0  0
 29 63  1  0  0  0  0
 29 64  1  0  0  0  0
 30 65  1  0  0  0  0
 30 66  1  0  0  0  0
 33 67  1  0  0  0  0
M  CHG  1  33   1
M  END
> <SMILES>
COc1cc2c(cc1OCc1ccccc1)N(CC12CCN(C)CC1)c1cccc2ncccc12

> <FORMATTED_ID>
H3D-013941

> <MOLFORMULA>
C30H31N3O2

> <Exact Mass>
465.24

> <XLogP>
6.32

> <TPSA_NOPS>
37.8

> <s_m_source_file>
ligprep_h3d.sdf

> <i_m_source_file_index>
5151

> <i_lp_mmshare_version>
55123

> <i_f3d_flags>
0

> <s_epik_input>
W2NIXTFbY0hdW2NIXVtjSF1bY0hdYzFbQ0gyXU9jKGMoW2NIXTIpT1tDSDNdKVtjSF1jKE4oW0NIMl0zKWMoW2NIXVtjSF1bY0hdNCljKGM0NSlbY0hdW2NIXVtjSF1uNSljMkMzNltDSDJdW0NIMl1OKFtDSDNdKVtDSDJdW0NIMl02

> <s_epik_cmdline>
J2VwaWtfcHl0aG9uJywgJy1waHQnLCAnMC41JywgJy1waCcsICc3LjUnLCAnLXRuJywgJzgnLCAnLW1hJywgJzUwMCcsICctaW1hZScsICc8aW5maWxlLm1hZT4nLCAnLW9tYWUnLCAnPG91dGZpbGUubWFlPic=

> <r_lp_tautomer_probability>
1

> <r_epik_Ionization_Penalty>
0.0227203

> <r_epik_Ionization_Penalty_Charging>
0.00678686

> <r_epik_Ionization_Penalty_Neutral>
0.0159335

> <r_epik_State_Penalty>
0.0125466

> <r_epik_Charging_Adjusted_Penalty>
0.0193335

> <i_epik_Tot_Q>
1

> <i_epik_Tot_abs_Q>
1

> <s_lp_Force_Field>
S-OPLS

> <r_lp_Energy>
87.914

> <b_lp_Chiralities_Consistent>
1

> <s_lp_Variant>
ligprep_h3d.sdf:5151-1

> <ROCS_ShapeQuery>
_7L13

> <ROCS_TanimotoCombo>
0.752 

> <ROCS_ShapeTanimoto>
0.653 

> <ROCS_ColorTanimoto>
0.099 

> <ROCS_RefTversky>
0.783 

> <ROCS_RefColorTversky>
0.199 

> <ROCS_RefTverskyCombo>
0.981 

> <ROCS_FitTversky>
0.798 

> <ROCS_FitColorTversky>
0.165 

> <ROCS_FitTverskyCombo>
0.963 

> <ROCS_ColorScore>
-1.808

> <ROCS_Overlap>
1298.356

> <ROCS_Rank>
329                 

$$$$
ligprep_h3d.sdf:4973_1782
  -OEChem-08212117123D

 62 66  0     1  0  0  0  0  0999 V2000
  -21.7008   -6.6832  -32.9870 C   0  0  0  0  0  0  0  0  0  0  0  0
  -20.8885   -4.6395  -33.9873 C   0  0  0  0  0  0  0  0  0  0  0  0
  -25.0183   -4.5817  -25.2864 C   0  0  0  0  0  0  0  0  0  0  0  0
  -23.3214   -4.8667  -23.5904 C   0  0  0  0  0  0  0  0  0  0  0  0
  -20.8103   -7.4196  -33.7681 C   0  0  0  0  0  0  0  0  0  0  0  0
  -19.9979   -5.3759  -34.7685 C   0  0  0  0  0  0  0  0  0  0  0  0
  -25.9607   -4.3025  -24.2966 C   0  0  0  0  0  0  0  0  0  0  0  0
  -24.2638   -4.5874  -22.6006 C   0  0  0  0  0  0  0  0  0  0  0  0
  -17.0427   -5.7316  -26.1100 C   0  0  0  0  0  0  0  0  0  0  0  0
  -17.6521   -3.7615  -24.8515 C   0  0  0  0  0  0  0  0  0  0  0  0
  -15.7500   -5.0876  -24.1732 C   0  0  0  0  0  0  0  0  0  0  0  0
  -21.7400   -5.2932  -33.0966 C   0  0  0  0  0  0  0  0  0  0  0  0
  -17.8799   -4.6329  -25.9166 C   0  0  0  0  0  0  0  0  0  0  0  0
  -23.6987   -4.8639  -24.9332 C   0  0  0  0  0  0  0  0  0  0  0  0
  -19.9588   -6.7660  -34.6589 C   0  0  0  0  0  0  0  0  0  0  0  0
  -25.5834   -4.3053  -22.9538 C   0  0  0  0  0  0  0  0  0  0  0  0
  -15.9777   -5.9590  -25.2383 C   0  0  0  0  0  0  0  0  0  0  0  0
  -16.5872   -3.9888  -23.9798 C   0  0  0  0  0  0  0  0  0  0  0  0
  -21.9625   -3.5232  -31.3730 C   0  0  0  0  0  0  0  0  0  0  0  0
  -21.9474   -5.3066  -29.5685 C   0  0  0  0  0  0  0  0  0  0  0  0
  -19.1214   -4.7053  -28.1729 C   0  0  0  0  0  0  0  0  0  0  0  0
  -20.0725   -3.5331  -26.7057 C   0  0  0  0  0  0  0  0  0  0  0  0
  -20.9218   -3.1416  -29.1572 C   0  0  0  0  0  0  0  0  0  0  0  0
  -21.6532   -5.2094  -28.0725 C   0  0  1  0  0  0  0  0  0  0  0  0
  -20.5604   -4.1278  -28.0501 C   0  0  0  0  0  0  0  0  0  0  0  0
  -22.8970   -4.7834  -27.2947 C   0  0  0  0  0  0  0  0  0  0  0  0
  -22.6985   -4.4999  -32.2549 C   0  0  1  0  0  0  0  0  0  0  0  0
  -18.9501   -4.4037  -26.7929 N   0  0  0  0  0  0  0  0  0  0  0  0
  -21.6422   -3.9818  -30.1052 N   0  0  0  0  0  0  0  0  0  0  0  0
  -22.7550   -5.1435  -25.9244 N   0  0  0  0  0  0  0  0  0  0  0  0
  -21.6866   -2.3962  -31.7881 O   0  0  0  0  0  0  0  0  0  0  0  0
  -19.0890   -7.4846  -35.4201 O   0  0  0  0  0  0  0  0  0  0  0  0
  -23.5785   -3.7464  -33.0657 O   0  0  0  0  0  0  0  0  0  0  0  0
  -26.4884   -4.0371  -22.0033 F   0  0  0  0  0  0  0  0  0  0  0  0
  -15.1729   -7.0132  -25.4255 F   0  0  0  0  0  0  0  0  0  0  0  0
  -16.3673   -3.1509  -22.9583 F   0  0  0  0  0  0  0  0  0  0  0  0
  -22.3606   -7.2007  -32.2957 H   0  0  0  0  0  0  0  0  0  0  0  0
  -20.9121   -3.5567  -34.0794 H   0  0  0  0  0  0  0  0  0  0  0  0
  -25.3231   -4.5765  -26.3298 H   0  0  0  0  0  0  0  0  0  0  0  0
  -22.2959   -5.0854  -23.3039 H   0  0  0  0  0  0  0  0  0  0  0  0
  -20.7843   -8.5023  -33.6780 H   0  0  0  0  0  0  0  0  0  0  0  0
  -19.3371   -4.8610  -35.4601 H   0  0  0  0  0  0  0  0  0  0  0  0
  -26.9881   -4.0826  -24.5712 H   0  0  0  0  0  0  0  0  0  0  0  0
  -23.9707   -4.5897  -21.5549 H   0  0  0  0  0  0  0  0  0  0  0  0
  -17.2106   -6.4164  -26.9371 H   0  0  0  0  0  0  0  0  0  0  0  0
  -18.2978   -2.9017  -24.6922 H   0  0  0  0  0  0  0  0  0  0  0  0
  -14.9197   -5.2644  -23.4958 H   0  0  0  0  0  0  0  0  0  0  0  0
  -21.2632   -6.0093  -30.0565 H   0  0  0  0  0  0  0  0  0  0  0  0
  -22.9731   -5.6005  -29.8075 H   0  0  0  0  0  0  0  0  0  0  0  0
  -19.0559   -5.7814  -28.3733 H   0  0  0  0  0  0  0  0  0  0  0  0
  -18.4241   -4.1668  -28.8216 H   0  0  0  0  0  0  0  0  0  0  0  0
  -19.7979   -2.4744  -26.7132 H   0  0  0  0  0  0  0  0  0  0  0  0
  -20.7010   -3.7537  -25.8354 H   0  0  0  0  0  0  0  0  0  0  0  0
  -21.6115   -2.3648  -28.8050 H   0  0  0  0  0  0  0  0  0  0  0  0
  -20.0581   -2.6650  -29.6340 H   0  0  0  0  0  0  0  0  0  0  0  0
  -21.2992   -6.1684  -27.6804 H   0  0  0  0  0  0  0  0  0  0  0  0
  -22.9893   -3.7040  -27.4005 H   0  0  0  0  0  0  0  0  0  0  0  0
  -23.7473   -5.2966  -27.7405 H   0  0  0  0  0  0  0  0  0  0  0  0
  -23.2922   -5.1523  -31.6123 H   0  0  0  0  0  0  0  0  0  0  0  0
  -21.9126   -5.6423  -25.6261 H   0  0  0  0  0  0  0  0  0  0  0  0
  -18.5682   -6.8923  -35.9856 H   0  0  0  0  0  0  0  0  0  0  0  0
  -24.0688   -4.3772  -33.6211 H   0  0  0  0  0  0  0  0  0  0  0  0
  1  5  1  0  0  0  0
  1 12  2  0  0  0  0
  2  6  2  0  0  0  0
  2 12  1  0  0  0  0
  3  7  1  0  0  0  0
  3 14  2  0  0  0  0
  4  8  2  0  0  0  0
  4 14  1  0  0  0  0
  5 15  2  0  0  0  0
  6 15  1  0  0  0  0
  7 16  2  0  0  0  0
  8 16  1  0  0  0  0
  9 13  2  0  0  0  0
  9 17  1  0  0  0  0
 10 13  1  0  0  0  0
 10 18  2  0  0  0  0
 11 17  2  0  0  0  0
 11 18  1  0  0  0  0
 12 27  1  0  0  0  0
 13 28  1  0  0  0  0
 14 30  1  0  0  0  0
 15 32  1  0  0  0  0
 16 34  1  0  0  0  0
 17 35  1  0  0  0  0
 18 36  1  0  0  0  0
 19 27  1  0  0  0  0
 19 29  1  0  0  0  0
 19 31  2  0  0  0  0
 20 24  1  0  0  0  0
 20 29  1  0  0  0  0
 21 25  1  0  0  0  0
 21 28  1  0  0  0  0
 22 25  1  0  0  0  0
 22 28  1  0  0  0  0
 23 25  1  0  0  0  0
 23 29  1  0  0  0  0
 24 25  1  0  0  0  0
 24 26  1  0  0  0  0
 26 30  1  0  0  0  0
 27 33  1  0  0  0  0
  1 37  1  0  0  0  0
  2 38  1  0  0  0  0
  3 39  1  0  0  0  0
  4 40  1  0  0  0  0
  5 41  1  0  0  0  0
  6 42  1  0  0  0  0
  7 43  1  0  0  0  0
  8 44  1  0  0  0  0
  9 45  1  0  0  0  0
 10 46  1  0  0  0  0
 11 47  1  0  0  0  0
 20 48  1  0  0  0  0
 20 49  1  0  0  0  0
 21 50  1  0  0  0  0
 21 51  1  0  0  0  0
 22 52  1  0  0  0  0
 22 53  1  0  0  0  0
 23 54  1  0  0  0  0
 23 55  1  0  0  0  0
 24 56  1  0  0  0  0
 26 57  1  0  0  0  0
 26 58  1  0  0  0  0
 27 59  1  0  0  0  0
 30 60  1  0  0  0  0
 32 61  1  0  0  0  0
 33 62  1  0  0  0  0
M  END
> <SMILES>
O[C@H](C(=O)N1CC(CNc2ccc(cc2)F)C2(C1)CN(C2)c1cc(cc(c1)F)F)c1ccc(cc1)O

> <FORMATTED_ID>
H3D-008608

> <MOLFORMULA>
C27H26F3N3O3

> <Exact Mass>
497.19

> <XLogP>
3.3

> <TPSA_NOPS>
76

> <s_m_source_file>
ligprep_h3d.sdf

> <i_m_source_file_index>
4973

> <i_lp_mmshare_version>
55123

> <i_f3d_flags>
0

> <s_epik_input>
W2NIXTFbY0hdYyhbT0hdKVtjSF1bY0hdYzFbQ0BIXShbT0hdKUMoPU8pTihbQ0gyXTIpW0NIMl1bQ0BIXShbQ0gyXVtOSF1jM1tjSF1bY0hdYyhGKVtjSF1bY0hdMylDMjRbQ0gyXU4oW0NIMl00KWM1W2NIXWMoRilbY0hdYyhGKVtjSF01

> <s_epik_cmdline>
J2VwaWtfcHl0aG9uJywgJy1waHQnLCAnMC41JywgJy1waCcsICc3LjUnLCAnLXRuJywgJzgnLCAnLW1hJywgJzUwMCcsICctaW1hZScsICc8aW5maWxlLm1hZT4nLCAnLW9tYWUnLCAnPG91dGZpbGUubWFlPic=

> <r_lp_tautomer_probability>
1

> <r_epik_Ionization_Penalty>
0.141909

> <r_epik_Ionization_Penalty_Charging>
0

> <r_epik_Ionization_Penalty_Neutral>
0.141909

> <r_epik_State_Penalty>
0.127424

> <r_epik_Charging_Adjusted_Penalty>
0.127424

> <i_epik_Tot_Q>
0

> <i_epik_Tot_abs_Q>
0

> <s_lp_Force_Field>
S-OPLS

> <r_lp_Energy>
36.8115

> <b_lp_Chiralities_Consistent>
1

> <s_lp_Variant>
ligprep_h3d.sdf:4973-1

> <ROCS_ShapeQuery>
_7L13

> <ROCS_TanimotoCombo>
0.701 

> <ROCS_ShapeTanimoto>
0.646 

> <ROCS_ColorTanimoto>
0.055 

> <ROCS_RefTversky>
0.783 

> <ROCS_RefColorTversky>
0.115 

> <ROCS_RefTverskyCombo>
0.898 

> <ROCS_FitTversky>
0.787 

> <ROCS_FitColorTversky>
0.096 

> <ROCS_FitTverskyCombo>
0.883 

> <ROCS_ColorScore>
-1.047

> <ROCS_Overlap>
1299.242

> <ROCS_Rank>
330                 

$$$$
ligprep_h3d.sdf:731_522
  -OEChem-08212117123D

 60 65  0     1  0  0  0  0  0999 V2000
  -20.9303   -5.0962  -29.5184 C   0  0  0  0  0  0  0  0  0  0  0  0
  -21.7290   -4.3585  -30.3944 C   0  0  0  0  0  0  0  0  0  0  0  0
  -21.0504   -4.8650  -28.1261 C   0  0  0  0  0  0  0  0  0  0  0  0
  -21.9780   -3.9443  -27.5861 C   0  0  0  0  0  0  0  0  0  0  0  0
  -22.6053   -3.4377  -29.8642 C   0  0  0  0  0  0  0  0  0  0  0  0
  -22.7601   -3.1968  -28.4988 C   0  0  0  0  0  0  0  0  0  0  0  0
  -21.9292   -4.2510  -31.7833 C   0  0  0  0  0  0  0  0  0  0  0  0
  -19.1799   -6.0342  -25.0211 C   0  0  0  0  0  0  0  0  0  0  0  0
  -18.9316   -3.7543  -26.1617 C   0  0  0  0  0  0  0  0  0  0  0  0
  -17.0492   -5.2755  -25.6111 C   0  0  0  0  0  0  0  0  0  0  0  0
  -20.1585   -5.6640  -27.2146 C   0  0  0  0  0  0  0  0  0  0  0  0
  -19.7336   -5.6399  -34.3987 C   0  0  0  0  0  0  0  0  0  0  0  0
  -19.9503   -4.6257  -33.2776 C   0  0  0  0  0  0  0  0  0  0  0  0
  -21.6704   -6.3245  -33.1725 C   0  0  0  0  0  0  0  0  0  0  0  0
  -23.0790   -2.8411  -25.6512 C   0  0  0  0  0  0  0  0  0  0  0  0
  -20.4328   -6.8915  -33.8768 C   0  0  1  0  0  0  0  0  0  0  0  0
  -21.1929   -4.4665  -25.2394 C   0  0  2  0  0  0  0  0  0  0  0  0
  -23.4419   -3.1658  -24.1999 C   0  0  1  0  0  0  0  0  0  0  0  0
  -21.0567   -3.5269  -24.0041 C   0  0  2  0  0  0  0  0  0  0  0  0
  -19.8469   -4.9376  -25.8833 C   0  0  1  0  0  0  0  0  0  0  0  0
  -24.3932   -4.3552  -24.0824 C   0  0  0  0  0  0  0  0  0  0  0  0
  -20.0937   -3.9772  -22.9123 C   0  0  0  0  0  0  0  0  0  0  0  0
  -20.7691   -7.8898  -34.9706 C   0  0  0  0  0  0  0  0  0  0  0  0
  -22.8528   -3.3360  -32.0928 N   0  0  0  0  0  0  0  0  0  0  0  0
  -17.8674   -6.2265  -25.1641 N   0  5  0  0  0  0  0  0  0  0  0  0
  -17.5954   -4.0668  -26.0315 N   0  0  0  0  0  0  0  0  0  0  0  0
  -22.0935   -3.7793  -26.2040 N   0  0  3  0  0  0  0  0  0  0  0  0
  -21.2254   -5.0207  -32.6850 N   0  0  0  0  0  0  0  0  0  0  0  0
  -19.8790   -6.7758  -24.3275 O   0  0  0  0  0  0  0  0  0  0  0  0
  -19.3204   -2.6465  -26.5236 O   0  0  0  0  0  0  0  0  0  0  0  0
  -15.8246   -5.4189  -25.6651 O   0  0  0  0  0  0  0  0  0  0  0  0
  -23.2782   -2.8207  -30.8739 O   0  0  0  0  0  0  0  0  0  0  0  0
  -22.3239   -3.3922  -23.3480 O   0  0  0  0  0  0  0  0  0  0  0  0
  -19.6943   -7.9359  -35.8945 O   0  0  0  0  0  0  0  0  0  0  0  0
  -23.5681   -2.1962  -28.1277 F   0  0  0  0  0  0  0  0  0  0  0  0
  -20.2235   -5.8289  -29.8980 H   0  0  0  0  0  0  0  0  0  0  0  0
  -20.6563   -6.6251  -27.0242 H   0  0  0  0  0  0  0  0  0  0  0  0
  -19.2200   -5.8934  -27.7379 H   0  0  0  0  0  0  0  0  0  0  0  0
  -20.2052   -5.2828  -35.3225 H   0  0  0  0  0  0  0  0  0  0  0  0
  -18.6715   -5.8107  -34.5990 H   0  0  0  0  0  0  0  0  0  0  0  0
  -19.1561   -4.7011  -32.5251 H   0  0  0  0  0  0  0  0  0  0  0  0
  -19.9718   -3.6019  -33.6681 H   0  0  0  0  0  0  0  0  0  0  0  0
  -22.5085   -6.1910  -33.8680 H   0  0  0  0  0  0  0  0  0  0  0  0
  -21.9933   -6.9778  -32.3534 H   0  0  0  0  0  0  0  0  0  0  0  0
  -23.9885   -2.9095  -26.2846 H   0  0  0  0  0  0  0  0  0  0  0  0
  -22.8002   -1.7758  -25.6961 H   0  0  0  0  0  0  0  0  0  0  0  0
  -19.7884   -7.3775  -33.1320 H   0  0  0  0  0  0  0  0  0  0  0  0
  -21.7518   -5.3576  -24.9157 H   0  0  0  0  0  0  0  0  0  0  0  0
  -24.0158   -2.2743  -23.7658 H   0  0  0  0  0  0  0  0  0  0  0  0
  -20.7391   -2.5147  -24.3169 H   0  0  0  0  0  0  0  0  0  0  0  0
  -23.9183   -5.2532  -24.4777 H   0  0  0  0  0  0  0  0  0  0  0  0
  -25.3054   -4.1602  -24.6463 H   0  0  0  0  0  0  0  0  0  0  0  0
  -24.6526   -4.5233  -23.0370 H   0  0  0  0  0  0  0  0  0  0  0  0
  -20.3630   -4.9751  -22.5661 H   0  0  0  0  0  0  0  0  0  0  0  0
  -20.1363   -3.2870  -22.0698 H   0  0  0  0  0  0  0  0  0  0  0  0
  -19.0752   -4.0001  -23.3000 H   0  0  0  0  0  0  0  0  0  0  0  0
  -21.6770   -7.5847  -35.4960 H   0  0  0  0  0  0  0  0  0  0  0  0
  -20.9145   -8.8850  -34.5441 H   0  0  0  0  0  0  0  0  0  0  0  0
  -16.9344   -3.3437  -26.3004 H   0  0  0  0  0  0  0  0  0  0  0  0
  -19.9374   -8.5804  -36.5800 H   0  0  0  0  0  0  0  0  0  0  0  0
  1  2  2  0  0  0  0
  1  3  1  0  0  0  0
  2  5  1  0  0  0  0
  2  7  1  0  0  0  0
  3  4  2  0  0  0  0
  3 11  1  0  0  0  0
  4  6  1  0  0  0  0
  4 27  1  0  0  0  0
  5  6  2  0  0  0  0
  5 32  1  0  0  0  0
  6 35  1  0  0  0  0
  7 24  2  0  0  0  0
  7 28  1  0  0  0  0
  8 20  1  0  0  0  0
  8 25  1  0  0  0  0
  8 29  2  0  0  0  0
  9 20  1  0  0  0  0
  9 26  1  0  0  0  0
  9 30  2  0  0  0  0
 10 25  1  0  0  0  0
 10 26  1  0  0  0  0
 10 31  2  0  0  0  0
 11 20  1  0  0  0  0
 12 13  1  0  0  0  0
 12 16  1  0  0  0  0
 13 28  1  0  0  0  0
 14 16  1  0  0  0  0
 14 28  1  0  0  0  0
 15 18  1  0  0  0  0
 15 27  1  0  0  0  0
 16 23  1  0  0  0  0
 17 19  1  0  0  0  0
 17 20  1  0  0  0  0
 17 27  1  0  0  0  0
 18 21  1  0  0  0  0
 18 33  1  0  0  0  0
 19 22  1  0  0  0  0
 19 33  1  0  0  0  0
 23 34  1  0  0  0  0
 24 32  1  0  0  0  0
  1 36  1  0  0  0  0
 11 37  1  0  0  0  0
 11 38  1  0  0  0  0
 12 39  1  0  0  0  0
 12 40  1  0  0  0  0
 13 41  1  0  0  0  0
 13 42  1  0  0  0  0
 14 43  1  0  0  0  0
 14 44  1  0  0  0  0
 15 45  1  0  0  0  0
 15 46  1  0  0  0  0
 16 47  1  0  0  0  0
 17 48  1  0  0  0  0
 18 49  1  0  0  0  0
 19 50  1  0  0  0  0
 21 51  1  0  0  0  0
 21 52  1  0  0  0  0
 21 53  1  0  0  0  0
 22 54  1  0  0  0  0
 22 55  1  0  0  0  0
 22 56  1  0  0  0  0
 23 57  1  0  0  0  0
 23 58  1  0  0  0  0
 26 59  1  0  0  0  0
 34 60  1  0  0  0  0
M  CHG  1  25  -1
M  END
> <SMILES>
C[C@@H]1CN2[C@H]([C@H](C)O1)C1(Cc3cc4c(noc4c(c32)F)N2CC[C@H](CO)C2)C(=O)NC(=O)NC1=O

> <FORMATTED_ID>
H3D-004961

> <MOLFORMULA>
C23H26FN5O6

> <Exact Mass>
487.19

> <XLogP>
0.06

> <TPSA_NOPS>
137.5

> <s_m_source_file>
ligprep_h3d.sdf

> <i_m_source_file_index>
731

> <i_lp_mmshare_version>
55123

> <i_f3d_flags>
0

> <s_epik_input>
Tz1DMVtOSF1DKD1PKVtOSF1DKD1PKUMxMltDQEBIXTNOKFtDSDJdW0NAQEhdKFtDSDNdKU9bQ0BIXTNbQ0gzXSljNGMoW0NIMl0yKVtjSF1jNWMoYzRGKW9uYzVONltDSDJdW0NIMl1bQ0BASF0oW0NIMl02KVtDSDJdW09IXQ==

> <s_epik_cmdline>
J2VwaWtfcHl0aG9uJywgJy1waHQnLCAnMC41JywgJy1waCcsICc3LjUnLCAnLXRuJywgJzgnLCAnLW1hJywgJzUwMCcsICctaW1hZScsICc8aW5maWxlLm1hZT4nLCAnLW9tYWUnLCAnPG91dGZpbGUubWFlPic=

> <r_lp_tautomer_probability>
1

> <r_epik_Ionization_Penalty>
0.455396

> <r_epik_Ionization_Penalty_Charging>
0.455373

> <r_epik_Ionization_Penalty_Neutral>
2.23366e-05

> <r_epik_State_Penalty>
0.458483

> <r_epik_Charging_Adjusted_Penalty>
0.913857

> <i_epik_Tot_Q>
-1

> <i_epik_Tot_abs_Q>
1

> <s_lp_Force_Field>
S-OPLS

> <r_lp_Energy>
46.5901

> <b_lp_Chiralities_Consistent>
1

> <s_lp_Variant>
ligprep_h3d.sdf:731-2

> <ROCS_ShapeQuery>
_7L13

> <ROCS_TanimotoCombo>
0.768 

> <ROCS_ShapeTanimoto>
0.644 

> <ROCS_ColorTanimoto>
0.124 

> <ROCS_RefTversky>
0.782 

> <ROCS_RefColorTversky>
0.295 

> <ROCS_RefTverskyCombo>
1.078 

> <ROCS_FitTversky>
0.785 

> <ROCS_FitColorTversky>
0.176 

> <ROCS_FitTverskyCombo>
0.961 

> <ROCS_ColorScore>
-2.759

> <ROCS_Overlap>
1299.180

> <ROCS_Rank>
331                 

$$$$
ligprep_h3d.sdf:2708_1494
  -OEChem-08212117123D

 56 59  0     0  0  0  0  0  0999 V2000
  -19.0222   -5.1681  -24.2581 C   0  0  0  0  0  0  0  0  0  0  0  0
  -23.2309   -2.6706  -30.3979 C   0  0  0  0  0  0  0  0  0  0  0  0
  -23.1754   -2.8050  -31.7851 C   0  0  0  0  0  0  0  0  0  0  0  0
  -22.0201   -4.7464  -30.1483 C   0  0  0  0  0  0  0  0  0  0  0  0
  -24.3420   -4.7765  -23.1281 C   0  0  0  0  0  0  0  0  0  0  0  0
  -24.8095   -4.1779  -25.8486 C   0  0  0  0  0  0  0  0  0  0  0  0
  -21.9647   -4.8809  -31.5356 C   0  0  0  0  0  0  0  0  0  0  0  0
  -23.2665   -4.6605  -24.0275 C   0  0  0  0  0  0  0  0  0  0  0  0
  -23.5010   -4.3434  -25.3667 C   0  0  0  0  0  0  0  0  0  0  0  0
  -22.6532   -3.6413  -29.5795 C   0  0  0  0  0  0  0  0  0  0  0  0
  -22.5424   -3.9102  -32.3540 C   0  0  0  0  0  0  0  0  0  0  0  0
  -25.6420   -4.5893  -23.6006 C   0  0  0  0  0  0  0  0  0  0  0  0
  -25.8700   -4.3015  -24.9423 C   0  0  0  0  0  0  0  0  0  0  0  0
  -21.3307   -4.6497  -24.9416 C   0  0  0  0  0  0  0  0  0  0  0  0
  -20.4986   -4.0682  -27.5392 C   0  0  0  0  0  0  0  0  0  0  0  0
  -19.9414   -4.7634  -25.2706 C   0  0  0  0  0  0  0  0  0  0  0  0
  -19.5329   -4.4944  -26.5314 C   0  0  0  0  0  0  0  0  0  0  0  0
  -21.8132   -3.9540  -27.2578 C   0  0  0  0  0  0  0  0  0  0  0  0
  -19.6012   -4.8682  -35.3240 C   0  0  0  0  0  0  0  0  0  0  0  0
  -19.6577   -7.9877  -33.6871 C   0  0  0  0  0  0  0  0  0  0  0  0
  -21.2821   -6.0696  -32.1278 C   0  0  0  0  0  0  0  0  0  0  0  0
  -19.7981   -5.0235  -33.8319 C   0  0  0  0  0  0  0  0  0  0  0  0
  -20.8348   -7.2431  -34.2782 C   0  0  0  0  0  0  0  0  0  0  0  0
  -18.1135   -4.5790  -27.0269 C   0  0  0  0  0  0  0  0  0  0  0  0
  -18.2746   -5.4974  -23.4343 N   0  0  0  0  0  0  0  0  0  0  0  0
  -21.9340   -4.8386  -23.7873 N   0  0  0  0  0  0  0  0  0  0  0  0
  -22.2346   -4.2816  -25.9484 N   0  0  0  0  0  0  0  0  0  0  0  0
  -22.7091   -3.5063  -28.1892 N   0  0  0  0  0  0  0  0  0  0  0  0
  -20.9854   -5.9168  -33.5782 N   0  3  0  0  0  0  0  0  0  0  0  0
  -22.4970   -4.0254  -33.7110 O   0  0  0  0  0  0  0  0  0  0  0  0
  -26.6774   -4.7019  -22.7577 F   0  0  0  0  0  0  0  0  0  0  0  0
  -27.1275   -4.1441  -25.3791 F   0  0  0  0  0  0  0  0  0  0  0  0
  -18.0431   -4.2340  -28.3257 F   0  0  0  0  0  0  0  0  0  0  0  0
  -17.3153   -3.7508  -26.3283 F   0  0  0  0  0  0  0  0  0  0  0  0
  -17.6355   -5.8304  -26.8981 F   0  0  0  0  0  0  0  0  0  0  0  0
  -23.7272   -1.8055  -29.9653 H   0  0  0  0  0  0  0  0  0  0  0  0
  -23.6265   -2.0447  -32.4169 H   0  0  0  0  0  0  0  0  0  0  0  0
  -21.5696   -5.5038  -29.5107 H   0  0  0  0  0  0  0  0  0  0  0  0
  -24.1689   -5.0180  -22.0839 H   0  0  0  0  0  0  0  0  0  0  0  0
  -25.0314   -3.9751  -26.8883 H   0  0  0  0  0  0  0  0  0  0  0  0
  -20.1215   -3.8201  -28.5278 H   0  0  0  0  0  0  0  0  0  0  0  0
  -19.3926   -5.8405  -35.7809 H   0  0  0  0  0  0  0  0  0  0  0  0
  -20.4964   -4.4554  -35.8005 H   0  0  0  0  0  0  0  0  0  0  0  0
  -18.7601   -4.2029  -35.5452 H   0  0  0  0  0  0  0  0  0  0  0  0
  -18.7350   -7.4203  -33.8424 H   0  0  0  0  0  0  0  0  0  0  0  0
  -19.7852   -8.1384  -32.6101 H   0  0  0  0  0  0  0  0  0  0  0  0
  -19.5343   -8.9695  -34.1561 H   0  0  0  0  0  0  0  0  0  0  0  0
  -20.3216   -6.2698  -31.6351 H   0  0  0  0  0  0  0  0  0  0  0  0
  -21.8950   -6.9754  -32.0312 H   0  0  0  0  0  0  0  0  0  0  0  0
  -20.0084   -4.0649  -33.3497 H   0  0  0  0  0  0  0  0  0  0  0  0
  -18.9337   -5.4956  -33.3569 H   0  0  0  0  0  0  0  0  0  0  0  0
  -21.7714   -7.7893  -34.1366 H   0  0  0  0  0  0  0  0  0  0  0  0
  -20.6867   -7.0306  -35.3406 H   0  0  0  0  0  0  0  0  0  0  0  0
  -23.5049   -3.0198  -27.8059 H   0  0  0  0  0  0  0  0  0  0  0  0
  -21.7969   -5.4500  -34.0150 H   0  0  0  0  0  0  0  0  0  0  0  0
  -22.9422   -3.2703  -34.1262 H   0  0  0  0  0  0  0  0  0  0  0  0
  1 16  1  0  0  0  0
  1 25  3  0  0  0  0
  2  3  1  0  0  0  0
  2 10  2  0  0  0  0
  3 11  2  0  0  0  0
  4  7  2  0  0  0  0
  4 10  1  0  0  0  0
  5  8  2  0  0  0  0
  5 12  1  0  0  0  0
  6  9  2  0  0  0  0
  6 13  1  0  0  0  0
  7 11  1  0  0  0  0
  7 21  1  0  0  0  0
  8  9  1  0  0  0  0
  8 26  1  0  0  0  0
  9 27  1  0  0  0  0
 10 28  1  0  0  0  0
 11 30  1  0  0  0  0
 12 13  2  0  0  0  0
 12 31  1  0  0  0  0
 13 32  1  0  0  0  0
 14 16  1  0  0  0  0
 14 26  2  0  0  0  0
 14 27  1  0  0  0  0
 15 17  1  0  0  0  0
 15 18  2  0  0  0  0
 16 17  2  0  0  0  0
 17 24  1  0  0  0  0
 18 27  1  0  0  0  0
 18 28  1  0  0  0  0
 19 22  1  0  0  0  0
 20 23  1  0  0  0  0
 21 29  1  0  0  0  0
 22 29  1  0  0  0  0
 23 29  1  0  0  0  0
 24 33  1  0  0  0  0
 24 34  1  0  0  0  0
 24 35  1  0  0  0  0
  2 36  1  0  0  0  0
  3 37  1  0  0  0  0
  4 38  1  0  0  0  0
  5 39  1  0  0  0  0
  6 40  1  0  0  0  0
 15 41  1  0  0  0  0
 19 42  1  0  0  0  0
 19 43  1  0  0  0  0
 19 44  1  0  0  0  0
 20 45  1  0  0  0  0
 20 46  1  0  0  0  0
 20 47  1  0  0  0  0
 21 48  1  0  0  0  0
 21 49  1  0  0  0  0
 22 50  1  0  0  0  0
 22 51  1  0  0  0  0
 23 52  1  0  0  0  0
 23 53  1  0  0  0  0
 28 54  1  0  0  0  0
 29 55  1  0  0  0  0
 30 56  1  0  0  0  0
M  CHG  1  29   1
M  END
> <SMILES>
CCN(CC)Cc1cc(ccc1O)Nc1cc(c(c2nc3cc(c(cc3n12)F)F)C#N)C(F)(F)F

> <FORMATTED_ID>
H3D-008163

> <MOLFORMULA>
C24H20F5N5O

> <Exact Mass>
489.16

> <XLogP>
6.59

> <TPSA_NOPS>
76.6

> <s_m_source_file>
ligprep_h3d.sdf

> <i_m_source_file_index>
2708

> <i_lp_mmshare_version>
55123

> <i_f3d_flags>
0

> <s_epik_input>
W0NIM11bQ0gyXU4oW0NIMl1bQ0gzXSlbQ0gyXWMxW2NIXWMoW2NIXVtjSF1jMVtPSF0pW05IXWMoW2NIXWMoQyhGKShGKUYpYzJDI04pbihjMjMpYzRjKG4zKVtjSF1jKEYpYyhGKVtjSF00

> <s_epik_cmdline>
J2VwaWtfcHl0aG9uJywgJy1waHQnLCAnMC41JywgJy1waCcsICc3LjUnLCAnLXRuJywgJzgnLCAnLW1hJywgJzUwMCcsICctaW1hZScsICc8aW5maWxlLm1hZT4nLCAnLW9tYWUnLCAnPG91dGZpbGUubWFlPic=

> <r_lp_tautomer_probability>
1

> <r_epik_Ionization_Penalty>
0.0671336

> <r_epik_Ionization_Penalty_Charging>
0.049274

> <r_epik_Ionization_Penalty_Neutral>
0.0178596

> <r_epik_State_Penalty>
-0

> <r_epik_Charging_Adjusted_Penalty>
0.049274

> <i_epik_Tot_Q>
1

> <i_epik_Tot_abs_Q>
1

> <s_lp_Force_Field>
S-OPLS

> <r_lp_Energy>
60.6903

> <b_lp_Chiralities_Consistent>
1

> <s_lp_Variant>
ligprep_h3d.sdf:2708-1

> <ROCS_ShapeQuery>
_7L13

> <ROCS_TanimotoCombo>
0.783 

> <ROCS_ShapeTanimoto>
0.653 

> <ROCS_ColorTanimoto>
0.131 

> <ROCS_RefTversky>
0.782 

> <ROCS_RefColorTversky>
0.255 

> <ROCS_RefTverskyCombo>
1.037 

> <ROCS_FitTversky>
0.797 

> <ROCS_FitColorTversky>
0.212 

> <ROCS_FitTverskyCombo>
1.009 

> <ROCS_ColorScore>
-2.320

> <ROCS_Overlap>
1297.989

> <ROCS_Rank>
332                 

$$$$
ligprep_h3d.sdf:839_1885
  -OEChem-08212117123D

 69 73  0     1  0  0  0  0  0999 V2000
  -20.1276   -3.8587  -32.1640 C   0  0  0  0  0  0  0  0  0  0  0  0
  -21.1440   -6.0494  -32.0945 C   0  0  0  0  0  0  0  0  0  0  0  0
  -19.6308   -4.1296  -33.4389 C   0  0  0  0  0  0  0  0  0  0  0  0
  -20.6472   -6.3203  -33.3694 C   0  0  0  0  0  0  0  0  0  0  0  0
  -17.5412   -6.8908  -26.5470 C   0  0  0  0  0  0  0  0  0  0  0  0
  -23.1606   -3.6753  -28.7530 C   0  0  0  0  0  0  0  0  0  0  0  0
  -20.9732   -4.5814  -25.3377 C   0  0  0  0  0  0  0  0  0  0  0  0
  -17.0872   -5.5589  -26.5880 C   0  0  0  0  0  0  0  0  0  0  0  0
  -21.1686   -4.5675  -27.7473 C   0  0  0  0  0  0  0  0  0  0  0  0
  -20.8842   -4.8187  -31.4917 C   0  0  0  0  0  0  0  0  0  0  0  0
  -21.4016   -4.5364  -30.1632 C   0  0  0  0  0  0  0  0  0  0  0  0
  -19.8906   -5.3604  -34.0416 C   0  0  0  0  0  0  0  0  0  0  0  0
  -22.6541   -3.9509  -30.0255 C   0  0  0  0  0  0  0  0  0  0  0  0
  -20.6588   -4.8448  -29.0272 C   0  0  0  0  0  0  0  0  0  0  0  0
  -22.4395   -3.9733  -27.6001 C   0  0  0  0  0  0  0  0  0  0  0  0
  -20.4421   -4.8675  -26.5871 C   0  0  0  0  0  0  0  0  0  0  0  0
  -22.2241   -3.9998  -25.2940 C   0  0  0  0  0  0  0  0  0  0  0  0
  -18.9108   -6.7866  -26.5414 C   0  0  0  0  0  0  0  0  0  0  0  0
  -19.9460   -7.9923  -36.1265 C   0  0  0  0  0  0  0  0  0  0  0  0
  -22.8386   -3.6759  -24.0179 C   0  0  0  0  0  0  0  0  0  0  0  0
  -17.7679   -7.6017  -35.4355 C   0  0  0  0  0  0  0  0  0  0  0  0
  -18.0186   -9.0917  -35.5545 C   0  0  1  0  0  0  0  0  0  0  0  0
  -23.4932   -3.5980  -31.2125 C   0  0  0  0  0  0  0  0  0  0  0  0
  -19.3137   -5.4760  -29.2542 C   0  0  0  0  0  0  0  0  0  0  0  0
  -19.9527   -7.8316  -26.5051 C   0  0  0  0  0  0  0  0  0  0  0  0
  -18.1152   -9.7901  -34.2053 C   0  0  0  0  0  0  0  0  0  0  0  0
  -19.3593   -5.6501  -35.4047 C   0  0  0  0  0  0  0  0  0  0  0  0
  -24.9948   -3.3942  -22.7681 C   0  0  0  0  0  0  0  0  0  0  0  0
  -25.2078   -4.6530  -21.9474 C   0  0  0  0  0  0  0  0  0  0  0  0
  -18.0871   -4.6736  -26.6073 N   0  0  0  0  0  0  0  0  0  0  0  0
  -22.9574   -3.6945  -26.3889 N   0  0  0  0  0  0  0  0  0  0  0  0
  -19.1831   -5.4507  -26.5783 N   0  0  0  0  0  0  0  0  0  0  0  0
  -19.0831   -7.0567  -35.5998 N   0  0  0  0  0  0  0  0  0  0  0  0
  -24.2372   -3.7130  -23.9569 N   0  0  0  0  0  0  0  0  0  0  0  0
  -21.1049   -7.8273  -36.4814 O   0  0  0  0  0  0  0  0  0  0  0  0
  -22.1368   -3.3614  -23.0394 O   0  0  0  0  0  0  0  0  0  0  0  0
  -19.2919   -9.1971  -36.2222 O   0  0  0  0  0  0  0  0  0  0  0  0
  -25.9534   -5.5934  -22.7100 O   0  0  0  0  0  0  0  0  0  0  0  0
  -19.9160   -2.8948  -31.7072 H   0  0  0  0  0  0  0  0  0  0  0  0
  -21.7326   -6.8077  -31.5836 H   0  0  0  0  0  0  0  0  0  0  0  0
  -19.0414   -3.3763  -33.9547 H   0  0  0  0  0  0  0  0  0  0  0  0
  -20.8550   -7.2818  -33.8318 H   0  0  0  0  0  0  0  0  0  0  0  0
  -16.9555   -7.7981  -26.5250 H   0  0  0  0  0  0  0  0  0  0  0  0
  -24.1442   -3.2161  -28.6601 H   0  0  0  0  0  0  0  0  0  0  0  0
  -20.4312   -4.8037  -24.4226 H   0  0  0  0  0  0  0  0  0  0  0  0
  -16.0693   -5.1967  -26.6048 H   0  0  0  0  0  0  0  0  0  0  0  0
  -17.3261   -7.3000  -34.4822 H   0  0  0  0  0  0  0  0  0  0  0  0
  -17.1473   -7.2364  -36.2604 H   0  0  0  0  0  0  0  0  0  0  0  0
  -17.2582   -9.5721  -36.1755 H   0  0  0  0  0  0  0  0  0  0  0  0
  -23.2715   -2.5770  -31.5414 H   0  0  0  0  0  0  0  0  0  0  0  0
  -23.3051   -4.2845  -32.0461 H   0  0  0  0  0  0  0  0  0  0  0  0
  -24.5611   -3.6668  -30.9745 H   0  0  0  0  0  0  0  0  0  0  0  0
  -19.4149   -6.5639  -29.2804 H   0  0  0  0  0  0  0  0  0  0  0  0
  -18.8806   -5.1345  -30.1984 H   0  0  0  0  0  0  0  0  0  0  0  0
  -18.6178   -5.2008  -28.4566 H   0  0  0  0  0  0  0  0  0  0  0  0
  -20.2267   -8.0835  -25.4676 H   0  0  0  0  0  0  0  0  0  0  0  0
  -20.8722   -7.5173  -27.0278 H   0  0  0  0  0  0  0  0  0  0  0  0
  -19.6236   -8.7613  -27.0001 H   0  0  0  0  0  0  0  0  0  0  0  0
  -18.8745   -9.3089  -33.5875 H   0  0  0  0  0  0  0  0  0  0  0  0
  -17.1565   -9.7397  -33.6875 H   0  0  0  0  0  0  0  0  0  0  0  0
  -18.3860  -10.8376  -34.3438 H   0  0  0  0  0  0  0  0  0  0  0  0
  -20.0734   -5.3433  -36.1817 H   0  0  0  0  0  0  0  0  0  0  0  0
  -18.4261   -5.1033  -35.5981 H   0  0  0  0  0  0  0  0  0  0  0  0
  -25.9490   -2.9556  -23.0769 H   0  0  0  0  0  0  0  0  0  0  0  0
  -24.4305   -2.6548  -22.1919 H   0  0  0  0  0  0  0  0  0  0  0  0
  -25.7812   -4.4194  -21.0449 H   0  0  0  0  0  0  0  0  0  0  0  0
  -24.2562   -5.1103  -21.6573 H   0  0  0  0  0  0  0  0  0  0  0  0
  -24.7645   -3.9140  -24.8002 H   0  0  0  0  0  0  0  0  0  0  0  0
  -26.0666   -6.3792  -22.1514 H   0  0  0  0  0  0  0  0  0  0  0  0
  1  3  1  0  0  0  0
  1 10  2  0  0  0  0
  2  4  2  0  0  0  0
  2 10  1  0  0  0  0
  3 12  2  0  0  0  0
  4 12  1  0  0  0  0
  5  8  1  0  0  0  0
  5 18  2  0  0  0  0
  6 13  1  0  0  0  0
  6 15  2  0  0  0  0
  7 16  2  0  0  0  0
  7 17  1  0  0  0  0
  8 30  2  0  0  0  0
  9 14  2  0  0  0  0
  9 15  1  0  0  0  0
  9 16  1  0  0  0  0
 10 11  1  0  0  0  0
 11 13  2  0  0  0  0
 11 14  1  0  0  0  0
 12 27  1  0  0  0  0
 13 23  1  0  0  0  0
 14 24  1  0  0  0  0
 15 31  1  0  0  0  0
 16 32  1  0  0  0  0
 17 20  1  0  0  0  0
 17 31  2  0  0  0  0
 18 25  1  0  0  0  0
 18 32  1  0  0  0  0
 19 33  1  0  0  0  0
 19 35  2  0  0  0  0
 19 37  1  0  0  0  0
 20 34  1  0  0  0  0
 20 36  2  0  0  0  0
 21 22  1  0  0  0  0
 21 33  1  0  0  0  0
 22 26  1  0  0  0  0
 22 37  1  0  0  0  0
 27 33  1  0  0  0  0
 28 29  1  0  0  0  0
 28 34  1  0  0  0  0
 29 38  1  0  0  0  0
 30 32  1  0  0  0  0
  1 39  1  0  0  0  0
  2 40  1  0  0  0  0
  3 41  1  0  0  0  0
  4 42  1  0  0  0  0
  5 43  1  0  0  0  0
  6 44  1  0  0  0  0
  7 45  1  0  0  0  0
  8 46  1  0  0  0  0
 21 47  1  0  0  0  0
 21 48  1  0  0  0  0
 22 49  1  0  0  0  0
 23 50  1  0  0  0  0
 23 51  1  0  0  0  0
 23 52  1  0  0  0  0
 24 53  1  0  0  0  0
 24 54  1  0  0  0  0
 24 55  1  0  0  0  0
 25 56  1  0  0  0  0
 25 57  1  0  0  0  0
 25 58  1  0  0  0  0
 26 59  1  0  0  0  0
 26 60  1  0  0  0  0
 26 61  1  0  0  0  0
 27 62  1  0  0  0  0
 27 63  1  0  0  0  0
 28 64  1  0  0  0  0
 28 65  1  0  0  0  0
 29 66  1  0  0  0  0
 29 67  1  0  0  0  0
 34 68  1  0  0  0  0
 38 69  1  0  0  0  0
M  END
> <SMILES>
CC1CN(Cc2ccc(cc2)-c2c(cc3nc(cc(c3c2C)-n2nccc2C)C(=O)NCCO)C)C(=O)O1

> <FORMATTED_ID>
H3D-005634

> <MOLFORMULA>
C29H31N5O4

> <Exact Mass>
513.24

> <XLogP>
3.75

> <TPSA_NOPS>
109.6

> <s_m_source_file>
ligprep_h3d.sdf

> <i_m_source_file_index>
839

> <i_lp_mmshare_version>
55123

> <i_f3d_flags>
0

> <s_epik_input>
W0NIM11bQ0BASF0xW0NIMl1OKEMoPU8pTzEpW0NIMl1jMltjSF1bY0hdYyhbY0hdW2NIXTIpLWMoYyhbY0hdMylbQ0gzXSljKFtDSDNdKWMoYzM0KWMoLW41bltjSF1bY0hdYzVbQ0gzXSlbY0hdYyhuNClDKD1PKVtOSF1bQ0gyXVtDSDJdW09IXQ==

> <s_epik_cmdline>
J2VwaWtfcHl0aG9uJywgJy1waHQnLCAnMC41JywgJy1waCcsICc3LjUnLCAnLXRuJywgJzgnLCAnLW1hJywgJzUwMCcsICctaW1hZScsICc8aW5maWxlLm1hZT4nLCAnLW9tYWUnLCAnPG91dGZpbGUubWFlPic=

> <r_lp_tautomer_probability>
1

> <r_epik_Ionization_Penalty>
1.88428e-05

> <r_epik_Ionization_Penalty_Charging>
0

> <r_epik_Ionization_Penalty_Neutral>
1.88428e-05

> <r_epik_State_Penalty>
-0

> <r_epik_Charging_Adjusted_Penalty>
0

> <i_epik_Tot_Q>
0

> <i_epik_Tot_abs_Q>
0

> <s_epik_Chemistry_Notes>
This compound has an ester and may undergo hydrolysis at high or low pH.

> <s_lp_Force_Field>
S-OPLS

> <r_lp_Energy>
42.143

> <b_lp_Chiralities_Consistent>
1

> <s_lp_Variant>
ligprep_h3d.sdf:839-1

> <ROCS_ShapeQuery>
_7L13

> <ROCS_TanimotoCombo>
0.727 

> <ROCS_ShapeTanimoto>
0.613 

> <ROCS_ColorTanimoto>
0.115 

> <ROCS_RefTversky>
0.782 

> <ROCS_RefColorTversky>
0.236 

> <ROCS_RefTverskyCombo>
1.018 

> <ROCS_FitTversky>
0.738 

> <ROCS_FitColorTversky>
0.182 

> <ROCS_FitTverskyCombo>
0.920 

> <ROCS_ColorScore>
-2.159

> <ROCS_Overlap>
1303.499

> <ROCS_Rank>
333                 

$$$$
ligprep_h3d.sdf:442_25
  -OEChem-08212117123D

 63 69  0     1  0  0  0  0  0999 V2000
  -21.0003   -5.1796  -29.4914 C   0  0  0  0  0  0  0  0  0  0  0  0
  -21.7532   -4.4063  -30.3775 C   0  0  0  0  0  0  0  0  0  0  0  0
  -21.1122   -4.9265  -28.1031 C   0  0  0  0  0  0  0  0  0  0  0  0
  -21.9872   -3.9470  -27.5764 C   0  0  0  0  0  0  0  0  0  0  0  0
  -22.5780   -3.4316  -29.8604 C   0  0  0  0  0  0  0  0  0  0  0  0
  -22.7239   -3.1669  -28.4985 C   0  0  0  0  0  0  0  0  0  0  0  0
  -21.9423   -4.3024  -31.7682 C   0  0  0  0  0  0  0  0  0  0  0  0
  -18.9037   -3.8627  -26.2307 C   0  0  0  0  0  0  0  0  0  0  0  0
  -19.2708   -6.0599  -24.9902 C   0  0  0  0  0  0  0  0  0  0  0  0
  -17.0779   -5.2309  -25.8121 C   0  0  0  0  0  0  0  0  0  0  0  0
  -20.2757   -5.7634  -27.1727 C   0  0  0  0  0  0  0  0  0  0  0  0
  -21.8227   -5.5254  -33.9552 C   0  0  0  0  0  0  0  0  0  0  0  0
  -19.9448   -5.6716  -32.4245 C   0  0  0  0  0  0  0  0  0  0  0  0
  -23.0432   -2.7812  -25.6506 C   0  0  0  0  0  0  0  0  0  0  0  0
  -20.5717   -6.6436  -35.9090 C   0  0  0  0  0  0  0  0  0  0  0  0
  -18.9140   -5.2792  -34.7314 C   0  0  0  0  0  0  0  0  0  0  0  0
  -20.8719   -6.6333  -34.4244 C   0  0  1  0  0  0  0  0  0  0  0  0
  -19.5449   -6.2752  -33.7683 C   0  0  2  0  0  0  0  0  0  0  0  0
  -21.2153   -4.4686  -25.2276 C   0  0  2  0  0  0  0  0  0  0  0  0
  -23.4191   -3.0853  -24.1974 C   0  0  1  0  0  0  0  0  0  0  0  0
  -21.0479   -3.5272  -23.9987 C   0  0  2  0  0  0  0  0  0  0  0  0
  -19.8963   -4.9964  -25.8819 C   0  0  2  0  0  0  0  0  0  0  0  0
  -24.4174   -4.2353  -24.0773 C   0  0  0  0  0  0  0  0  0  0  0  0
  -20.0952   -4.0017  -22.9086 C   0  0  0  0  0  0  0  0  0  0  0  0
  -22.8117   -3.3401  -32.0910 N   0  0  0  0  0  0  0  0  0  0  0  0
  -17.6458   -4.2286  -26.4840 N   0  5  0  0  0  0  0  0  0  0  0  0
  -17.8912   -6.0635  -25.0455 N   0  0  0  0  0  0  0  0  0  0  0  0
  -22.0958   -3.7614  -26.1960 N   0  0  3  0  0  0  0  0  0  0  0  0
  -21.2797   -5.1205  -32.6594 N   0  0  0  0  0  0  0  0  0  0  0  0
  -19.4184   -5.6966  -36.0808 N   0  3  0  0  0  0  0  0  0  0  0  0
  -19.2982   -2.7058  -26.3759 O   0  0  0  0  0  0  0  0  0  0  0  0
  -19.9169   -6.8840  -24.3468 O   0  0  0  0  0  0  0  0  0  0  0  0
  -15.8669   -5.4645  -25.8548 O   0  0  0  0  0  0  0  0  0  0  0  0
  -23.2113   -2.7885  -30.8793 O   0  0  0  0  0  0  0  0  0  0  0  0
  -22.3116   -3.3564  -23.3433 O   0  0  0  0  0  0  0  0  0  0  0  0
  -23.4771   -2.1204  -28.1392 F   0  0  0  0  0  0  0  0  0  0  0  0
  -20.3340   -5.9542  -29.8603 H   0  0  0  0  0  0  0  0  0  0  0  0
  -20.8498   -6.6690  -26.9331 H   0  0  0  0  0  0  0  0  0  0  0  0
  -19.3686   -6.0995  -27.6921 H   0  0  0  0  0  0  0  0  0  0  0  0
  -21.8328   -4.6687  -34.6404 H   0  0  0  0  0  0  0  0  0  0  0  0
  -22.8473   -5.9042  -33.8635 H   0  0  0  0  0  0  0  0  0  0  0  0
  -20.0111   -6.4530  -31.6576 H   0  0  0  0  0  0  0  0  0  0  0  0
  -19.2336   -4.9084  -32.0877 H   0  0  0  0  0  0  0  0  0  0  0  0
  -23.9538   -2.8161  -26.2834 H   0  0  0  0  0  0  0  0  0  0  0  0
  -22.7178   -1.7303  -25.6973 H   0  0  0  0  0  0  0  0  0  0  0  0
  -20.2165   -7.6235  -36.2426 H   0  0  0  0  0  0  0  0  0  0  0  0
  -21.3975   -6.3043  -36.5400 H   0  0  0  0  0  0  0  0  0  0  0  0
  -19.2424   -4.2466  -34.5751 H   0  0  0  0  0  0  0  0  0  0  0  0
  -17.8216   -5.3250  -34.7445 H   0  0  0  0  0  0  0  0  0  0  0  0
  -21.2376   -7.6073  -34.0786 H   0  0  0  0  0  0  0  0  0  0  0  0
  -18.9012   -7.1540  -33.6499 H   0  0  0  0  0  0  0  0  0  0  0  0
  -21.8017   -5.3387  -24.8911 H   0  0  0  0  0  0  0  0  0  0  0  0
  -23.9562   -2.1706  -23.7663 H   0  0  0  0  0  0  0  0  0  0  0  0
  -20.7038   -2.5253  -24.3128 H   0  0  0  0  0  0  0  0  0  0  0  0
  -23.9787   -5.1527  -24.4701 H   0  0  0  0  0  0  0  0  0  0  0  0
  -25.3209   -4.0054  -24.6422 H   0  0  0  0  0  0  0  0  0  0  0  0
  -24.6839   -4.3902  -23.0316 H   0  0  0  0  0  0  0  0  0  0  0  0
  -20.3902   -4.9916  -22.5604 H   0  0  0  0  0  0  0  0  0  0  0  0
  -20.1175   -3.3096  -22.0668 H   0  0  0  0  0  0  0  0  0  0  0  0
  -19.0783   -4.0523  -23.2982 H   0  0  0  0  0  0  0  0  0  0  0  0
  -17.4172   -6.7479  -24.4638 H   0  0  0  0  0  0  0  0  0  0  0  0
  -18.6682   -6.1499  -36.6204 H   0  0  0  0  0  0  0  0  0  0  0  0
  -19.7055   -4.8706  -36.6235 H   0  0  0  0  0  0  0  0  0  0  0  0
  1  2  2  0  0  0  0
  1  3  1  0  0  0  0
  2  5  1  0  0  0  0
  2  7  1  0  0  0  0
  3  4  2  0  0  0  0
  3 11  1  0  0  0  0
  4  6  1  0  0  0  0
  4 28  1  0  0  0  0
  5  6  2  0  0  0  0
  5 34  1  0  0  0  0
  6 36  1  0  0  0  0
  7 25  2  0  0  0  0
  7 29  1  0  0  0  0
  8 22  1  0  0  0  0
  8 26  1  0  0  0  0
  8 31  2  0  0  0  0
  9 22  1  0  0  0  0
  9 27  1  0  0  0  0
  9 32  2  0  0  0  0
 10 26  1  0  0  0  0
 10 27  1  0  0  0  0
 10 33  2  0  0  0  0
 11 22  1  0  0  0  0
 12 17  1  0  0  0  0
 12 29  1  0  0  0  0
 13 18  1  0  0  0  0
 13 29  1  0  0  0  0
 14 20  1  0  0  0  0
 14 28  1  0  0  0  0
 15 17  1  0  0  0  0
 15 30  1  0  0  0  0
 16 18  1  0  0  0  0
 16 30  1  0  0  0  0
 17 18  1  0  0  0  0
 19 21  1  0  0  0  0
 19 22  1  0  0  0  0
 19 28  1  0  0  0  0
 20 23  1  0  0  0  0
 20 35  1  0  0  0  0
 21 24  1  0  0  0  0
 21 35  1  0  0  0  0
 25 34  1  0  0  0  0
  1 37  1  0  0  0  0
 11 38  1  0  0  0  0
 11 39  1  0  0  0  0
 12 40  1  0  0  0  0
 12 41  1  0  0  0  0
 13 42  1  0  0  0  0
 13 43  1  0  0  0  0
 14 44  1  0  0  0  0
 14 45  1  0  0  0  0
 15 46  1  0  0  0  0
 15 47  1  0  0  0  0
 16 48  1  0  0  0  0
 16 49  1  0  0  0  0
 17 50  1  0  0  0  0
 18 51  1  0  0  0  0
 19 52  1  0  0  0  0
 20 53  1  0  0  0  0
 21 54  1  0  0  0  0
 23 55  1  0  0  0  0
 23 56  1  0  0  0  0
 23 57  1  0  0  0  0
 24 58  1  0  0  0  0
 24 59  1  0  0  0  0
 24 60  1  0  0  0  0
 27 61  1  0  0  0  0
 30 62  1  0  0  0  0
 30 63  1  0  0  0  0
M  CHG  2  26  -1  30   1
M  END
> <SMILES>
CC1CN2C(C(C)O1)C1(Cc3cc4c(noc4c(c32)F)N2C[C@H]3CNC[C@H]3C2)C(=O)NC(=O)NC1=O

> <FORMATTED_ID>
H3D-003947

> <MOLFORMULA>
C24H27FN6O5

> <Exact Mass>
498.2

> <XLogP>
-0.11

> <TPSA_NOPS>
129.3

> <s_m_source_file>
ligprep_h3d.sdf

> <i_m_source_file_index>
442

> <i_lp_mmshare_version>
55123

> <i_f3d_flags>
0

> <s_epik_input>
Tz1DMVtOSF1DKD1PKVtOSF1DKD1PKUMxMltDQEBIXTNOKFtDSDJdW0NAQEhdKFtDSDNdKU9bQ0BIXTNbQ0gzXSljNGMoW0NIMl0yKVtjSF1jNWMoYzRGKW9uYzVOKFtDSDJdNilbQ0gyXVtDQEBIXShbQ0BASF02NylbQ0gyXVtOSF1bQ0gyXTc=

> <s_epik_cmdline>
J2VwaWtfcHl0aG9uJywgJy1waHQnLCAnMC41JywgJy1waCcsICc3LjUnLCAnLXRuJywgJzgnLCAnLW1hJywgJzUwMCcsICctaW1hZScsICc8aW5maWxlLm1hZT4nLCAnLW9tYWUnLCAnPG91dGZpbGUubWFlPic=

> <r_lp_tautomer_probability>
1

> <r_epik_Ionization_Penalty>
0.455782

> <r_epik_Ionization_Penalty_Charging>
0.455765

> <r_epik_Ionization_Penalty_Neutral>
1.64809e-05

> <r_epik_State_Penalty>
0.458483

> <r_epik_Charging_Adjusted_Penalty>
0.914249

> <i_epik_Tot_Q>
0

> <i_epik_Tot_abs_Q>
2

> <s_lp_Force_Field>
S-OPLS

> <r_lp_Energy>
52.4592

> <b_lp_Chiralities_Consistent>
1

> <s_lp_Variant>
ligprep_h3d.sdf:442-2

> <ROCS_ShapeQuery>
_7L13

> <ROCS_TanimotoCombo>
0.745 

> <ROCS_ShapeTanimoto>
0.626 

> <ROCS_ColorTanimoto>
0.119 

> <ROCS_RefTversky>
0.782 

> <ROCS_RefColorTversky>
0.295 

> <ROCS_RefTverskyCombo>
1.077 

> <ROCS_FitTversky>
0.758 

> <ROCS_FitColorTversky>
0.166 

> <ROCS_FitTverskyCombo>
0.924 

> <ROCS_ColorScore>
-2.775

> <ROCS_Overlap>
1301.360

> <ROCS_Rank>
334                 

$$$$
ligprep_h3d.sdf:442_26
  -OEChem-08212117123D

 64 70  0     1  0  0  0  0  0999 V2000
  -20.9852   -5.1644  -29.4973 C   0  0  0  0  0  0  0  0  0  0  0  0
  -21.7470   -4.3980  -30.3815 C   0  0  0  0  0  0  0  0  0  0  0  0
  -21.0978   -4.9154  -28.1076 C   0  0  0  0  0  0  0  0  0  0  0  0
  -21.9832   -3.9474  -27.5780 C   0  0  0  0  0  0  0  0  0  0  0  0
  -22.5814   -3.4332  -29.8616 C   0  0  0  0  0  0  0  0  0  0  0  0
  -22.7282   -3.1729  -28.4988 C   0  0  0  0  0  0  0  0  0  0  0  0
  -21.9388   -4.2936  -31.7717 C   0  0  0  0  0  0  0  0  0  0  0  0
  -18.9199   -3.8783  -26.1921 C   0  0  0  0  0  0  0  0  0  0  0  0
  -19.3001   -6.1336  -25.0025 C   0  0  0  0  0  0  0  0  0  0  0  0
  -17.0273   -5.4113  -25.7029 C   0  0  0  0  0  0  0  0  0  0  0  0
  -20.2465   -5.7463  -27.1851 C   0  0  0  0  0  0  0  0  0  0  0  0
  -21.8079   -5.5112  -33.9611 C   0  0  0  0  0  0  0  0  0  0  0  0
  -19.9268   -5.6392  -32.4326 C   0  0  0  0  0  0  0  0  0  0  0  0
  -23.0331   -2.7768  -25.6518 C   0  0  0  0  0  0  0  0  0  0  0  0
  -20.5466   -6.6117  -35.9183 C   0  0  0  0  0  0  0  0  0  0  0  0
  -18.9030   -5.2310  -34.7399 C   0  0  0  0  0  0  0  0  0  0  0  0
  -20.8453   -6.6075  -34.4333 C   0  0  1  0  0  0  0  0  0  0  0  0
  -19.5216   -6.2358  -33.7780 C   0  0  2  0  0  0  0  0  0  0  0  0
  -21.2262   -4.4848  -25.2281 C   0  0  2  0  0  0  0  0  0  0  0  0
  -23.4125   -3.0764  -24.1988 C   0  0  1  0  0  0  0  0  0  0  0  0
  -21.0477   -3.5479  -23.9981 C   0  0  2  0  0  0  0  0  0  0  0  0
  -19.9046   -5.0128  -25.8642 C   0  0  0  0  0  0  0  0  0  0  0  0
  -24.4203   -4.2179  -24.0774 C   0  0  0  0  0  0  0  0  0  0  0  0
  -20.1044   -4.0428  -22.9081 C   0  0  0  0  0  0  0  0  0  0  0  0
  -22.8193   -3.3404  -32.0917 N   0  0  0  0  0  0  0  0  0  0  0  0
  -17.5832   -4.2443  -26.2070 N   0  0  0  0  0  0  0  0  0  0  0  0
  -17.9251   -6.2803  -25.0996 N   0  0  0  0  0  0  0  0  0  0  0  0
  -22.0937   -3.7650  -26.1975 N   0  0  3  0  0  0  0  0  0  0  0  0
  -21.2681   -5.1026  -32.6651 N   0  0  0  0  0  0  0  0  0  0  0  0
  -19.4041   -5.6516  -36.0895 N   0  3  0  0  0  0  0  0  0  0  0  0
  -19.2776   -2.7377  -26.4859 O   0  0  0  0  0  0  0  0  0  0  0  0
  -19.9876   -6.9104  -24.3383 O   0  0  0  0  0  0  0  0  0  0  0  0
  -15.8176   -5.6407  -25.7511 O   0  0  0  0  0  0  0  0  0  0  0  0
  -23.2232   -2.7953  -30.8784 O   0  0  0  0  0  0  0  0  0  0  0  0
  -22.3077   -3.3538  -23.3437 O   0  0  0  0  0  0  0  0  0  0  0  0
  -23.4911   -2.1336  -28.1403 F   0  0  0  0  0  0  0  0  0  0  0  0
  -20.3115   -5.9315  -29.8686 H   0  0  0  0  0  0  0  0  0  0  0  0
  -20.7929   -6.6779  -26.9835 H   0  0  0  0  0  0  0  0  0  0  0  0
  -19.3192   -6.0315  -27.7009 H   0  0  0  0  0  0  0  0  0  0  0  0
  -21.8283   -4.6533  -34.6447 H   0  0  0  0  0  0  0  0  0  0  0  0
  -22.8281   -5.9016  -33.8691 H   0  0  0  0  0  0  0  0  0  0  0  0
  -19.9836   -6.4227  -31.6672 H   0  0  0  0  0  0  0  0  0  0  0  0
  -19.2238   -4.8687  -32.0952 H   0  0  0  0  0  0  0  0  0  0  0  0
  -23.9439   -2.8043  -26.2852 H   0  0  0  0  0  0  0  0  0  0  0  0
  -22.7011   -1.7282  -25.6967 H   0  0  0  0  0  0  0  0  0  0  0  0
  -20.1809   -7.5870  -36.2541 H   0  0  0  0  0  0  0  0  0  0  0  0
  -21.3768   -6.2805  -36.5478 H   0  0  0  0  0  0  0  0  0  0  0  0
  -19.2427   -4.2024  -34.5813 H   0  0  0  0  0  0  0  0  0  0  0  0
  -17.8102   -5.2646  -34.7543 H   0  0  0  0  0  0  0  0  0  0  0  0
  -21.1997   -7.5861  -34.0890 H   0  0  0  0  0  0  0  0  0  0  0  0
  -18.8681   -7.1076  -33.6619 H   0  0  0  0  0  0  0  0  0  0  0  0
  -21.8219   -5.3501  -24.8983 H   0  0  0  0  0  0  0  0  0  0  0  0
  -23.9426   -2.1564  -23.7700 H   0  0  0  0  0  0  0  0  0  0  0  0
  -20.6824   -2.5532  -24.3131 H   0  0  0  0  0  0  0  0  0  0  0  0
  -23.9889   -5.1397  -24.4679 H   0  0  0  0  0  0  0  0  0  0  0  0
  -25.3214   -3.9818  -24.6436 H   0  0  0  0  0  0  0  0  0  0  0  0
  -24.6891   -4.3687  -23.0316 H   0  0  0  0  0  0  0  0  0  0  0  0
  -20.4208   -5.0259  -22.5596 H   0  0  0  0  0  0  0  0  0  0  0  0
  -20.1114   -3.3500  -22.0666 H   0  0  0  0  0  0  0  0  0  0  0  0
  -19.0893   -4.1154  -23.2984 H   0  0  0  0  0  0  0  0  0  0  0  0
  -16.9394   -3.5853  -26.6341 H   0  0  0  0  0  0  0  0  0  0  0  0
  -17.5236   -7.0880  -24.6319 H   0  0  0  0  0  0  0  0  0  0  0  0
  -18.6495   -6.0955  -36.6307 H   0  0  0  0  0  0  0  0  0  0  0  0
  -19.7010   -4.8278  -36.6304 H   0  0  0  0  0  0  0  0  0  0  0  0
  1  2  2  0  0  0  0
  1  3  1  0  0  0  0
  2  5  1  0  0  0  0
  2  7  1  0  0  0  0
  3  4  2  0  0  0  0
  3 11  1  0  0  0  0
  4  6  1  0  0  0  0
  4 28  1  0  0  0  0
  5  6  2  0  0  0  0
  5 34  1  0  0  0  0
  6 36  1  0  0  0  0
  7 25  2  0  0  0  0
  7 29  1  0  0  0  0
  8 22  1  0  0  0  0
  8 26  1  0  0  0  0
  8 31  2  0  0  0  0
  9 22  1  0  0  0  0
  9 27  1  0  0  0  0
  9 32  2  0  0  0  0
 10 26  1  0  0  0  0
 10 27  1  0  0  0  0
 10 33  2  0  0  0  0
 11 22  1  0  0  0  0
 12 17  1  0  0  0  0
 12 29  1  0  0  0  0
 13 18  1  0  0  0  0
 13 29  1  0  0  0  0
 14 20  1  0  0  0  0
 14 28  1  0  0  0  0
 15 17  1  0  0  0  0
 15 30  1  0  0  0  0
 16 18  1  0  0  0  0
 16 30  1  0  0  0  0
 17 18  1  0  0  0  0
 19 21  1  0  0  0  0
 19 22  1  0  0  0  0
 19 28  1  0  0  0  0
 20 23  1  0  0  0  0
 20 35  1  0  0  0  0
 21 24  1  0  0  0  0
 21 35  1  0  0  0  0
 25 34  1  0  0  0  0
  1 37  1  0  0  0  0
 11 38  1  0  0  0  0
 11 39  1  0  0  0  0
 12 40  1  0  0  0  0
 12 41  1  0  0  0  0
 13 42  1  0  0  0  0
 13 43  1  0  0  0  0
 14 44  1  0  0  0  0
 14 45  1  0  0  0  0
 15 46  1  0  0  0  0
 15 47  1  0  0  0  0
 16 48  1  0  0  0  0
 16 49  1  0  0  0  0
 17 50  1  0  0  0  0
 18 51  1  0  0  0  0
 19 52  1  0  0  0  0
 20 53  1  0  0  0  0
 21 54  1  0  0  0  0
 23 55  1  0  0  0  0
 23 56  1  0  0  0  0
 23 57  1  0  0  0  0
 24 58  1  0  0  0  0
 24 59  1  0  0  0  0
 24 60  1  0  0  0  0
 26 61  1  0  0  0  0
 27 62  1  0  0  0  0
 30 63  1  0  0  0  0
 30 64  1  0  0  0  0
M  CHG  1  30   1
M  END
> <SMILES>
CC1CN2C(C(C)O1)C1(Cc3cc4c(noc4c(c32)F)N2C[C@H]3CNC[C@H]3C2)C(=O)NC(=O)NC1=O

> <FORMATTED_ID>
H3D-003947

> <MOLFORMULA>
C24H27FN6O5

> <Exact Mass>
498.2

> <XLogP>
-0.11

> <TPSA_NOPS>
129.3

> <s_m_source_file>
ligprep_h3d.sdf

> <i_m_source_file_index>
442

> <i_lp_mmshare_version>
55123

> <i_f3d_flags>
0

> <s_epik_input>
Tz1DMVtOSF1DKD1PKVtOSF1DKD1PKUMxMltDQEBIXTNOKFtDSDJdW0NAQEhdKFtDSDNdKU9bQ0BIXTNbQ0gzXSljNGMoW0NIMl0yKVtjSF1jNWMoYzRGKW9uYzVOKFtDSDJdNilbQ0gyXVtDQEBIXShbQ0BASF02NylbQ0gyXVtOSF1bQ0gyXTc=

> <s_epik_cmdline>
J2VwaWtfcHl0aG9uJywgJy1waHQnLCAnMC41JywgJy1waCcsICc3LjUnLCAnLXRuJywgJzgnLCAnLW1hJywgJzUwMCcsICctaW1hZScsICc8aW5maWxlLm1hZT4nLCAnLW9tYWUnLCAnPG91dGZpbGUubWFlPic=

> <r_lp_tautomer_probability>
1

> <r_epik_Ionization_Penalty>
0.369519

> <r_epik_Ionization_Penalty_Charging>
0.000391922

> <r_epik_Ionization_Penalty_Neutral>
0.369127

> <r_epik_State_Penalty>
0.366447

> <r_epik_Charging_Adjusted_Penalty>
0.366839

> <i_epik_Tot_Q>
1

> <i_epik_Tot_abs_Q>
1

> <s_lp_Force_Field>
S-OPLS

> <r_lp_Energy>
48.0745

> <b_lp_Chiralities_Consistent>
1

> <s_lp_Variant>
ligprep_h3d.sdf:442-1

> <ROCS_ShapeQuery>
_7L13

> <ROCS_TanimotoCombo>
0.751 

> <ROCS_ShapeTanimoto>
0.627 

> <ROCS_ColorTanimoto>
0.124 

> <ROCS_RefTversky>
0.782 

> <ROCS_RefColorTversky>
0.296 

> <ROCS_RefTverskyCombo>
1.078 

> <ROCS_FitTversky>
0.760 

> <ROCS_FitColorTversky>
0.176 

> <ROCS_FitTverskyCombo>
0.936 

> <ROCS_ColorScore>
-2.772

> <ROCS_Overlap>
1301.041

> <ROCS_Rank>
335                 

$$$$
ligprep_h3d.sdf:855_112
  -OEChem-08212117123D

 58 63  0     1  0  0  0  0  0999 V2000
  -20.9243   -5.1084  -29.5029 C   0  0  0  0  0  0  0  0  0  0  0  0
  -21.7154   -4.3692  -30.3849 C   0  0  0  0  0  0  0  0  0  0  0  0
  -21.0512   -4.8712  -28.1130 C   0  0  0  0  0  0  0  0  0  0  0  0
  -21.9768   -3.9425  -27.5811 C   0  0  0  0  0  0  0  0  0  0  0  0
  -22.5906   -3.4425  -29.8624 C   0  0  0  0  0  0  0  0  0  0  0  0
  -22.7520   -3.1954  -28.4989 C   0  0  0  0  0  0  0  0  0  0  0  0
  -21.9079   -4.2655  -31.7751 C   0  0  0  0  0  0  0  0  0  0  0  0
  -18.9036   -3.7067  -26.2296 C   0  0  0  0  0  0  0  0  0  0  0  0
  -19.1572   -5.9288  -25.0050 C   0  0  0  0  0  0  0  0  0  0  0  0
  -17.0094   -4.9807  -25.8174 C   0  0  0  0  0  0  0  0  0  0  0  0
  -20.7975   -7.8424  -34.9691 C   0  0  0  0  0  0  0  0  0  0  0  0
  -20.1733   -5.6699  -27.1871 C   0  0  0  0  0  0  0  0  0  0  0  0
  -19.6974   -5.6776  -34.3662 C   0  0  0  0  0  0  0  0  0  0  0  0
  -19.9236   -4.6539  -33.2573 C   0  0  0  0  0  0  0  0  0  0  0  0
  -21.6402   -6.3545  -33.1365 C   0  0  0  0  0  0  0  0  0  0  0  0
  -23.0947   -2.8469  -25.6490 C   0  0  0  0  0  0  0  0  0  0  0  0
  -20.4153   -6.9199  -33.8571 C   0  0  1  0  0  0  0  0  0  0  0  0
  -21.1818   -4.4395  -25.2346 C   0  0  2  0  0  0  0  0  0  0  0  0
  -23.4562   -3.1805  -24.1986 C   0  0  1  0  0  0  0  0  0  0  0  0
  -21.0654   -3.4994  -23.9990 C   0  0  2  0  0  0  0  0  0  0  0  0
  -19.8362   -4.8932  -25.8904 C   0  0  2  0  0  0  0  0  0  0  0  0
  -24.3932   -4.3818  -24.0881 C   0  0  0  0  0  0  0  0  0  0  0  0
  -20.0906   -3.9311  -22.9106 C   0  0  0  0  0  0  0  0  0  0  0  0
  -22.8259   -3.3477  -32.0927 N   0  0  0  0  0  0  0  0  0  0  0  0
  -17.6280   -4.0047  -26.4833 N   0  5  0  0  0  0  0  0  0  0  0  0
  -17.7792   -5.8600  -25.0580 N   0  0  0  0  0  0  0  0  0  0  0  0
  -22.0967   -3.7725  -26.1996 N   0  0  3  0  0  0  0  0  0  0  0  0
  -21.2025   -5.0415  -32.6707 N   0  0  0  0  0  0  0  0  0  0  0  0
  -20.0114   -7.8511  -35.9566 O   0  5  0  0  0  0  0  0  0  0  0  0
  -19.3578   -2.5711  -26.3674 O   0  0  0  0  0  0  0  0  0  0  0  0
  -19.7602   -6.7899  -24.3685 O   0  0  0  0  0  0  0  0  0  0  0  0
  -15.7879   -5.1504  -25.8597 O   0  0  0  0  0  0  0  0  0  0  0  0
  -21.8613   -8.4948  -34.7742 O   0  0  0  0  0  0  0  0  0  0  0  0
  -23.2554   -2.8263  -30.8779 O   0  0  0  0  0  0  0  0  0  0  0  0
  -22.3371   -3.3994  -23.3445 O   0  0  0  0  0  0  0  0  0  0  0  0
  -23.5593   -2.1922  -28.1337 F   0  0  0  0  0  0  0  0  0  0  0  0
  -20.2180   -5.8445  -29.8761 H   0  0  0  0  0  0  0  0  0  0  0  0
  -20.6997   -6.6058  -26.9547 H   0  0  0  0  0  0  0  0  0  0  0  0
  -19.2492   -5.9544  -27.7073 H   0  0  0  0  0  0  0  0  0  0  0  0
  -20.0739   -5.3211  -35.3273 H   0  0  0  0  0  0  0  0  0  0  0  0
  -18.6271   -5.8841  -34.4648 H   0  0  0  0  0  0  0  0  0  0  0  0
  -19.1106   -4.6771  -32.5233 H   0  0  0  0  0  0  0  0  0  0  0  0
  -19.9956   -3.6408  -33.6702 H   0  0  0  0  0  0  0  0  0  0  0  0
  -22.5134   -6.2799  -33.7930 H   0  0  0  0  0  0  0  0  0  0  0  0
  -21.8972   -6.9771  -32.2729 H   0  0  0  0  0  0  0  0  0  0  0  0
  -24.0015   -2.9249  -26.2836 H   0  0  0  0  0  0  0  0  0  0  0  0
  -22.8246   -1.7802  -25.6878 H   0  0  0  0  0  0  0  0  0  0  0  0
  -19.7661   -7.4822  -33.1446 H   0  0  0  0  0  0  0  0  0  0  0  0
  -21.7224   -5.3414  -24.9052 H   0  0  0  0  0  0  0  0  0  0  0  0
  -24.0408   -2.2981  -23.7621 H   0  0  0  0  0  0  0  0  0  0  0  0
  -20.7737   -2.4787  -24.3055 H   0  0  0  0  0  0  0  0  0  0  0  0
  -23.9067   -5.2723  -24.4866 H   0  0  0  0  0  0  0  0  0  0  0  0
  -25.3067   -4.1954  -24.6530 H   0  0  0  0  0  0  0  0  0  0  0  0
  -24.6526   -4.5578  -23.0440 H   0  0  0  0  0  0  0  0  0  0  0  0
  -20.3341   -4.9375  -22.5698 H   0  0  0  0  0  0  0  0  0  0  0  0
  -20.1501   -3.2470  -22.0640 H   0  0  0  0  0  0  0  0  0  0  0  0
  -19.0720   -3.9258  -23.2989 H   0  0  0  0  0  0  0  0  0  0  0  0
  -17.2708   -6.5227  -24.4803 H   0  0  0  0  0  0  0  0  0  0  0  0
  1  2  2  0  0  0  0
  1  3  1  0  0  0  0
  2  5  1  0  0  0  0
  2  7  1  0  0  0  0
  3  4  2  0  0  0  0
  3 12  1  0  0  0  0
  4  6  1  0  0  0  0
  4 27  1  0  0  0  0
  5  6  2  0  0  0  0
  5 34  1  0  0  0  0
  6 36  1  0  0  0  0
  7 24  2  0  0  0  0
  7 28  1  0  0  0  0
  8 21  1  0  0  0  0
  8 25  1  0  0  0  0
  8 30  2  0  0  0  0
  9 21  1  0  0  0  0
  9 26  1  0  0  0  0
  9 31  2  0  0  0  0
 10 25  1  0  0  0  0
 10 26  1  0  0  0  0
 10 32  2  0  0  0  0
 11 17  1  0  0  0  0
 11 29  1  0  0  0  0
 11 33  2  0  0  0  0
 12 21  1  0  0  0  0
 13 14  1  0  0  0  0
 13 17  1  0  0  0  0
 14 28  1  0  0  0  0
 15 17  1  0  0  0  0
 15 28  1  0  0  0  0
 16 19  1  0  0  0  0
 16 27  1  0  0  0  0
 18 20  1  0  0  0  0
 18 21  1  0  0  0  0
 18 27  1  0  0  0  0
 19 22  1  0  0  0  0
 19 35  1  0  0  0  0
 20 23  1  0  0  0  0
 20 35  1  0  0  0  0
 24 34  1  0  0  0  0
  1 37  1  0  0  0  0
 12 38  1  0  0  0  0
 12 39  1  0  0  0  0
 13 40  1  0  0  0  0
 13 41  1  0  0  0  0
 14 42  1  0  0  0  0
 14 43  1  0  0  0  0
 15 44  1  0  0  0  0
 15 45  1  0  0  0  0
 16 46  1  0  0  0  0
 16 47  1  0  0  0  0
 17 48  1  0  0  0  0
 18 49  1  0  0  0  0
 19 50  1  0  0  0  0
 20 51  1  0  0  0  0
 22 52  1  0  0  0  0
 22 53  1  0  0  0  0
 22 54  1  0  0  0  0
 23 55  1  0  0  0  0
 23 56  1  0  0  0  0
 23 57  1  0  0  0  0
 26 58  1  0  0  0  0
M  CHG  2  25  -1  29  -1
M  END
> <SMILES>
C[C@@H]1CN2[C@H]([C@H](C)O1)C1(Cc3cc4c(noc4c(c32)F)N2CC[C@@H](C2)C(=O)O)C(=O)NC(=O)NC1=O

> <FORMATTED_ID>
H3D-005667

> <MOLFORMULA>
C23H24FN5O7

> <Exact Mass>
501.17

> <XLogP>
-0.11

> <TPSA_NOPS>
154.6

> <s_m_source_file>
ligprep_h3d.sdf

> <i_m_source_file_index>
855

> <i_lp_mmshare_version>
55123

> <i_f3d_flags>
0

> <s_epik_input>
Tz1DMVtOSF1DKD1PKVtOSF1DKD1PKUMxMltDQEBIXTNOKFtDSDJdW0NAQEhdKFtDSDNdKU9bQ0BIXTNbQ0gzXSljNGMoW0NIMl0yKVtjSF1jNWMoYzRGKW9uYzVONltDSDJdW0NIMl1bQ0BASF0oW0NIMl02KUMoPU8pW09IXQ==

> <s_epik_cmdline>
J2VwaWtfcHl0aG9uJywgJy1waHQnLCAnMC41JywgJy1waCcsICc3LjUnLCAnLXRuJywgJzgnLCAnLW1hJywgJzUwMCcsICctaW1hZScsICc8aW5maWxlLm1hZT4nLCAnLW9tYWUnLCAnPG91dGZpbGUubWFlPic=

> <r_lp_tautomer_probability>
1

> <r_epik_Ionization_Penalty>
0.455553

> <r_epik_Ionization_Penalty_Charging>
0.455533

> <r_epik_Ionization_Penalty_Neutral>
1.99137e-05

> <r_epik_State_Penalty>
0.458483

> <r_epik_Charging_Adjusted_Penalty>
0.914016

> <i_epik_Tot_Q>
-2

> <i_epik_Tot_abs_Q>
2

> <s_lp_Force_Field>
S-OPLS

> <r_lp_Energy>
57.374

> <b_lp_Chiralities_Consistent>
1

> <s_lp_Variant>
ligprep_h3d.sdf:855-2

> <ROCS_ShapeQuery>
_7L13

> <ROCS_TanimotoCombo>
0.746 

> <ROCS_ShapeTanimoto>
0.628 

> <ROCS_ColorTanimoto>
0.119 

> <ROCS_RefTversky>
0.782 

> <ROCS_RefColorTversky>
0.294 

> <ROCS_RefTverskyCombo>
1.076 

> <ROCS_FitTversky>
0.760 

> <ROCS_FitColorTversky>
0.166 

> <ROCS_FitTverskyCombo>
0.926 

> <ROCS_ColorScore>
-2.762

> <ROCS_Overlap>
1300.829

> <ROCS_Rank>
336                 

$$$$
ligprep_h3d.sdf:5321_1144
  -OEChem-08212117123D

 76 82  0     0  0  0  0  0  0999 V2000
  -16.4676   -3.7276  -18.7006 C   0  0  0  0  0  0  0  0  0  0  0  0
  -16.8399   -2.4605  -19.1495 C   0  0  0  0  0  0  0  0  0  0  0  0
  -16.8359   -4.8606  -19.4262 C   0  0  0  0  0  0  0  0  0  0  0  0
  -17.5805   -2.3264  -20.3238 C   0  0  0  0  0  0  0  0  0  0  0  0
  -17.5765   -4.7265  -20.6005 C   0  0  0  0  0  0  0  0  0  0  0  0
  -18.9011   -4.3566  -26.8344 C   0  0  0  0  0  0  0  0  0  0  0  0
  -20.4307   -4.4667  -24.4649 C   0  0  0  0  0  0  0  0  0  0  0  0
  -26.4969   -4.6674  -22.3397 C   0  0  0  0  0  0  0  0  0  0  0  0
  -27.0856   -5.8551  -22.6870 C   0  0  0  0  0  0  0  0  0  0  0  0
  -20.2880   -4.4225  -26.8894 C   0  0  0  0  0  0  0  0  0  0  0  0
  -17.9489   -3.4594  -21.0494 C   0  0  0  0  0  0  0  0  0  0  0  0
  -21.0373   -4.4767  -25.7125 C   0  0  0  0  0  0  0  0  0  0  0  0
  -18.2770   -4.3458  -25.5854 C   0  0  0  0  0  0  0  0  0  0  0  0
  -19.0371   -4.4005  -24.4089 C   0  0  0  0  0  0  0  0  0  0  0  0
  -25.3626   -5.5389  -24.0345 C   0  0  0  0  0  0  0  0  0  0  0  0
  -24.3008   -5.6212  -25.0733 C   0  0  0  0  0  0  0  0  0  0  0  0
  -20.0602   -4.8975  -33.7381 C   0  0  0  0  0  0  0  0  0  0  0  0
  -19.3555   -5.5946  -34.6395 C   0  0  0  0  0  0  0  0  0  0  0  0
  -23.5619   -3.4945  -24.1631 C   0  0  0  0  0  0  0  0  0  0  0  0
  -24.5332   -3.4451  -23.2317 C   0  0  0  0  0  0  0  0  0  0  0  0
  -21.9726   -6.3265  -33.9949 C   0  0  0  0  0  0  0  0  0  0  0  0
  -21.4196   -5.2632  -33.3924 C   0  0  0  0  0  0  0  0  0  0  0  0
  -23.4165   -4.6013  -25.1250 C   0  0  0  0  0  0  0  0  0  0  0  0
  -19.9754   -6.7760  -35.3059 C   0  0  0  0  0  0  0  0  0  0  0  0
  -20.8890   -5.6865  -28.9880 C   0  0  0  0  0  0  0  0  0  0  0  0
  -21.0075   -3.1630  -28.9534 C   0  0  0  0  0  0  0  0  0  0  0  0
  -22.5878   -4.5225  -27.4674 C   0  0  0  0  0  0  0  0  0  0  0  0
  -21.6992   -5.6978  -30.2793 C   0  0  0  0  0  0  0  0  0  0  0  0
  -21.8171   -3.1924  -30.2447 C   0  0  0  0  0  0  0  0  0  0  0  0
  -21.1744   -4.4471  -28.1186 C   0  0  0  0  0  0  0  0  0  0  0  0
  -16.2091   -5.5179  -25.5108 C   0  0  0  0  0  0  0  0  0  0  0  0
  -18.7458   -3.3158  -22.3126 C   0  0  0  0  0  0  0  0  0  0  0  0
  -22.1261   -4.4333  -32.3839 C   0  0  0  0  0  0  0  0  0  0  0  0
  -25.4269   -4.4913  -23.1917 N   0  0  0  0  0  0  0  0  0  0  0  0
  -26.3632   -6.3720  -23.7373 N   0  3  0  0  0  0  0  0  0  0  0  0
  -21.2754   -7.0610  -34.9221 N   0  0  0  0  0  0  0  0  0  0  0  0
  -22.4022   -4.5381  -26.0123 N   0  0  0  0  0  0  0  0  0  0  0  0
  -21.4484   -4.4199  -31.0411 N   0  3  0  0  0  0  0  0  0  0  0  0
  -19.3418   -7.4256  -36.1336 O   0  0  0  0  0  0  0  0  0  0  0  0
  -16.9167   -4.2802  -25.5220 O   0  0  0  0  0  0  0  0  0  0  0  0
  -18.4199   -4.3888  -23.1929 O   0  0  0  0  0  0  0  0  0  0  0  0
  -15.8898   -3.8318  -17.7869 H   0  0  0  0  0  0  0  0  0  0  0  0
  -16.5523   -1.5781  -18.5853 H   0  0  0  0  0  0  0  0  0  0  0  0
  -16.5453   -5.8472  -19.0776 H   0  0  0  0  0  0  0  0  0  0  0  0
  -17.8663   -1.3352  -20.6659 H   0  0  0  0  0  0  0  0  0  0  0  0
  -17.8591   -5.6148  -21.1592 H   0  0  0  0  0  0  0  0  0  0  0  0
  -18.3104   -4.3141  -27.7443 H   0  0  0  0  0  0  0  0  0  0  0  0
  -21.0069   -4.5078  -23.5469 H   0  0  0  0  0  0  0  0  0  0  0  0
  -26.6940   -3.9172  -21.5975 H   0  0  0  0  0  0  0  0  0  0  0  0
  -27.9260   -6.4219  -22.3384 H   0  0  0  0  0  0  0  0  0  0  0  0
  -24.2681   -6.4733  -25.7408 H   0  0  0  0  0  0  0  0  0  0  0  0
  -19.6155   -4.0368  -33.2491 H   0  0  0  0  0  0  0  0  0  0  0  0
  -18.3396   -5.3276  -34.9042 H   0  0  0  0  0  0  0  0  0  0  0  0
  -22.8420   -2.6828  -24.2190 H   0  0  0  0  0  0  0  0  0  0  0  0
  -24.6488   -2.6371  -22.5211 H   0  0  0  0  0  0  0  0  0  0  0  0
  -22.9815   -6.6648  -33.7928 H   0  0  0  0  0  0  0  0  0  0  0  0
  -21.0938   -6.6069  -28.4255 H   0  0  0  0  0  0  0  0  0  0  0  0
  -19.8225   -5.7270  -29.2478 H   0  0  0  0  0  0  0  0  0  0  0  0
  -19.9498   -3.0156  -29.2108 H   0  0  0  0  0  0  0  0  0  0  0  0
  -21.2969   -2.2817  -28.3662 H   0  0  0  0  0  0  0  0  0  0  0  0
  -23.2096   -3.6622  -27.7437 H   0  0  0  0  0  0  0  0  0  0  0  0
  -23.1291   -5.4261  -27.7732 H   0  0  0  0  0  0  0  0  0  0  0  0
  -21.3835   -6.5280  -30.9199 H   0  0  0  0  0  0  0  0  0  0  0  0
  -22.7764   -5.7717  -30.0973 H   0  0  0  0  0  0  0  0  0  0  0  0
  -22.8962   -3.2252  -30.0619 H   0  0  0  0  0  0  0  0  0  0  0  0
  -21.5817   -2.3191  -30.8620 H   0  0  0  0  0  0  0  0  0  0  0  0
  -15.1350   -5.3239  -25.4583 H   0  0  0  0  0  0  0  0  0  0  0  0
  -16.4445   -6.0814  -26.4172 H   0  0  0  0  0  0  0  0  0  0  0  0
  -16.5160   -6.0949  -24.6353 H   0  0  0  0  0  0  0  0  0  0  0  0
  -19.8205   -3.3399  -22.1027 H   0  0  0  0  0  0  0  0  0  0  0  0
  -18.5208   -2.3646  -22.8070 H   0  0  0  0  0  0  0  0  0  0  0  0
  -23.1374   -4.8133  -32.2144 H   0  0  0  0  0  0  0  0  0  0  0  0
  -22.1832   -3.3929  -32.7152 H   0  0  0  0  0  0  0  0  0  0  0  0
  -26.5601   -7.2487  -24.2121 H   0  0  0  0  0  0  0  0  0  0  0  0
  -21.7476   -7.8558  -35.3429 H   0  0  0  0  0  0  0  0  0  0  0  0
  -20.4373   -4.3697  -31.2278 H   0  0  0  0  0  0  0  0  0  0  0  0
  1  2  2  0  0  0  0
  1  3  1  0  0  0  0
  2  4  1  0  0  0  0
  3  5  2  0  0  0  0
  4 11  2  0  0  0  0
  5 11  1  0  0  0  0
  6 10  1  0  0  0  0
  6 13  2  0  0  0  0
  7 12  1  0  0  0  0
  7 14  2  0  0  0  0
  8  9  2  0  0  0  0
  8 34  1  0  0  0  0
  9 35  1  0  0  0  0
 10 12  2  0  0  0  0
 10 30  1  0  0  0  0
 11 32  1  0  0  0  0
 12 37  1  0  0  0  0
 13 14  1  0  0  0  0
 13 40  1  0  0  0  0
 14 41  1  0  0  0  0
 15 16  1  0  0  0  0
 15 34  1  0  0  0  0
 15 35  2  0  0  0  0
 16 23  2  0  0  0  0
 17 18  2  0  0  0  0
 17 22  1  0  0  0  0
 18 24  1  0  0  0  0
 19 20  2  0  0  0  0
 19 23  1  0  0  0  0
 20 34  1  0  0  0  0
 21 22  2  0  0  0  0
 21 36  1  0  0  0  0
 22 33  1  0  0  0  0
 23 37  1  0  0  0  0
 24 36  1  0  0  0  0
 24 39  2  0  0  0  0
 25 28  1  0  0  0  0
 25 30  1  0  0  0  0
 26 29  1  0  0  0  0
 26 30  1  0  0  0  0
 27 30  1  0  0  0  0
 27 37  1  0  0  0  0
 28 38  1  0  0  0  0
 29 38  1  0  0  0  0
 31 40  1  0  0  0  0
 32 41  1  0  0  0  0
 33 38  1  0  0  0  0
  1 42  1  0  0  0  0
  2 43  1  0  0  0  0
  3 44  1  0  0  0  0
  4 45  1  0  0  0  0
  5 46  1  0  0  0  0
  6 47  1  0  0  0  0
  7 48  1  0  0  0  0
  8 49  1  0  0  0  0
  9 50  1  0  0  0  0
 16 51  1  0  0  0  0
 17 52  1  0  0  0  0
 18 53  1  0  0  0  0
 19 54  1  0  0  0  0
 20 55  1  0  0  0  0
 21 56  1  0  0  0  0
 25 57  1  0  0  0  0
 25 58  1  0  0  0  0
 26 59  1  0  0  0  0
 26 60  1  0  0  0  0
 27 61  1  0  0  0  0
 27 62  1  0  0  0  0
 28 63  1  0  0  0  0
 28 64  1  0  0  0  0
 29 65  1  0  0  0  0
 29 66  1  0  0  0  0
 31 67  1  0  0  0  0
 31 68  1  0  0  0  0
 31 69  1  0  0  0  0
 32 70  1  0  0  0  0
 32 71  1  0  0  0  0
 33 72  1  0  0  0  0
 33 73  1  0  0  0  0
 35 74  1  0  0  0  0
 36 75  1  0  0  0  0
 38 76  1  0  0  0  0
M  CHG  2  35   1  38   1
M  END
> <SMILES>
COc1cc2c(cc1OCc1ccccc1)N(CC12CCN(CC1)CC1=CNC(=O)C=C1)c1ccn2ccnc2c1

> <FORMATTED_ID>
H3D-014837

> <MOLFORMULA>
C33H33N5O3

> <Exact Mass>
547.26

> <XLogP>
5.82

> <TPSA_NOPS>
71.3

> <s_m_source_file>
ligprep_h3d.sdf

> <i_m_source_file_index>
5321

> <i_lp_mmshare_version>
55123

> <i_f3d_flags>
0

> <s_epik_input>
W2NIXTFbY0hdW2NIXVtjSF1bY0hdYzFbQ0gyXU9jKGMoW2NIXTIpT1tDSDNdKVtjSF1jKE4oW0NIMl0zKWMoW2NIXVtjSF00KVtjSF1jKG40NSluW2NIXVtjSF01KWMyQzM2W0NIMl1bQ0gyXU4oW0NIMl1bQ0gyXTYpW0NIMl1jN1tjSF1bbkhdYyg9TylbY0hdW2NIXTc=

> <s_epik_cmdline>
J2VwaWtfcHl0aG9uJywgJy1waHQnLCAnMC41JywgJy1waCcsICc3LjUnLCAnLXRuJywgJzgnLCAnLW1hJywgJzUwMCcsICctaW1hZScsICc8aW5maWxlLm1hZT4nLCAnLW9tYWUnLCAnPG91dGZpbGUubWFlPic=

> <r_lp_tautomer_probability>
0.999

> <r_epik_Ionization_Penalty>
0.481246

> <r_epik_Ionization_Penalty_Charging>
0.0826788

> <r_epik_Ionization_Penalty_Neutral>
0.398567

> <r_epik_State_Penalty>
0.446645

> <r_epik_Charging_Adjusted_Penalty>
0.529324

> <i_epik_Tot_Q>
2

> <i_epik_Tot_abs_Q>
2

> <s_lp_Force_Field>
S-OPLS

> <r_lp_Energy>
82.1406

> <b_lp_Chiralities_Consistent>
1

> <s_lp_Variant>
ligprep_h3d.sdf:5321-1

> <ROCS_ShapeQuery>
_7L13

> <ROCS_TanimotoCombo>
0.668 

> <ROCS_ShapeTanimoto>
0.577 

> <ROCS_ColorTanimoto>
0.091 

> <ROCS_RefTversky>
0.782 

> <ROCS_RefColorTversky>
0.215 

> <ROCS_RefTverskyCombo>
0.997 

> <ROCS_FitTversky>
0.688 

> <ROCS_FitColorTversky>
0.136 

> <ROCS_FitTverskyCombo>
0.823 

> <ROCS_ColorScore>
-2.001

> <ROCS_Overlap>
1308.486

> <ROCS_Rank>
337                 

$$$$
ligprep_h3d.sdf:5129_668
  -OEChem-08212117123D

 68 73  0     0  0  0  0  0  0999 V2000
  -19.6553   -6.4170  -34.7551 C   0  0  0  0  0  0  0  0  0  0  0  0
  -16.8031   -3.0825  -25.6819 C   0  0  0  0  0  0  0  0  0  0  0  0
  -20.2724   -5.1740  -34.8955 C   0  0  0  0  0  0  0  0  0  0  0  0
  -19.8599   -7.1707  -33.5993 C   0  0  0  0  0  0  0  0  0  0  0  0
  -15.6485   -3.8497  -25.5300 C   0  0  0  0  0  0  0  0  0  0  0  0
  -18.0510   -3.7016  -25.7790 C   0  0  0  0  0  0  0  0  0  0  0  0
  -21.0942   -4.6847  -33.8801 C   0  0  0  0  0  0  0  0  0  0  0  0
  -20.6816   -6.6813  -32.5839 C   0  0  0  0  0  0  0  0  0  0  0  0
  -15.7339   -5.2401  -25.4742 C   0  0  0  0  0  0  0  0  0  0  0  0
  -19.4300   -7.1579  -25.7583 C   0  0  0  0  0  0  0  0  0  0  0  0
  -23.4524   -3.6578  -27.7253 C   0  0  0  0  0  0  0  0  0  0  0  0
  -20.9118   -4.6411  -28.4361 C   0  0  0  0  0  0  0  0  0  0  0  0
  -18.2457   -7.8595  -25.6065 C   0  0  0  0  0  0  0  0  0  0  0  0
  -18.1565   -5.1003  -25.7250 C   0  0  0  0  0  0  0  0  0  0  0  0
  -22.5731   -4.1359  -26.7611 C   0  0  0  0  0  0  0  0  0  0  0  0
  -21.2987   -5.4383  -32.7243 C   0  0  0  0  0  0  0  0  0  0  0  0
  -16.9802   -5.8670  -25.5708 C   0  0  0  0  0  0  0  0  0  0  0  0
  -19.3844   -5.7693  -25.8179 C   0  0  0  0  0  0  0  0  0  0  0  0
  -21.3122   -4.6441  -27.1057 C   0  0  0  0  0  0  0  0  0  0  0  0
  -23.0513   -3.6700  -29.0597 C   0  0  0  0  0  0  0  0  0  0  0  0
  -21.7871   -4.1547  -29.4123 C   0  0  0  0  0  0  0  0  0  0  0  0
  -23.3197   -2.9414  -24.6456 C   0  0  0  0  0  0  0  0  0  0  0  0
  -23.7335   -5.4159  -24.9501 C   0  0  0  0  0  0  0  0  0  0  0  0
  -21.3211   -4.5355  -24.8090 C   0  0  0  0  0  0  0  0  0  0  0  0
  -23.6033   -3.0893  -23.1564 C   0  0  0  0  0  0  0  0  0  0  0  0
  -24.0614   -5.5366  -23.4653 C   0  0  0  0  0  0  0  0  0  0  0  0
  -22.7847   -4.2415  -25.2704 C   0  0  0  0  0  0  0  0  0  0  0  0
  -25.0148   -4.3199  -21.5115 C   0  0  0  0  0  0  0  0  0  0  0  0
  -23.8242   -1.8200  -30.3389 C   0  0  0  0  0  0  0  0  0  0  0  0
  -22.1823   -4.9124  -31.6316 C   0  0  0  0  0  0  0  0  0  0  0  0
  -17.0780   -7.2089  -25.5186 N   0  3  0  0  0  0  0  0  0  0  0  0
  -20.5879   -5.0745  -25.9709 N   0  0  0  0  0  0  0  0  0  0  0  0
  -24.5821   -4.2191  -22.9485 N   0  3  0  0  0  0  0  0  0  0  0  0
  -23.9037   -3.2069  -30.0171 O   0  0  0  0  0  0  0  0  0  0  0  0
  -21.3920   -4.1559  -30.7177 O   0  0  0  0  0  0  0  0  0  0  0  0
  -19.0166   -6.7985  -35.5464 H   0  0  0  0  0  0  0  0  0  0  0  0
  -16.7315   -1.9994  -25.7243 H   0  0  0  0  0  0  0  0  0  0  0  0
  -20.1141   -4.5875  -35.7958 H   0  0  0  0  0  0  0  0  0  0  0  0
  -19.3804   -8.1389  -33.4901 H   0  0  0  0  0  0  0  0  0  0  0  0
  -14.6806   -3.3625  -25.4545 H   0  0  0  0  0  0  0  0  0  0  0  0
  -18.9282   -3.0701  -25.8973 H   0  0  0  0  0  0  0  0  0  0  0  0
  -21.5708   -3.7151  -33.9981 H   0  0  0  0  0  0  0  0  0  0  0  0
  -20.8351   -7.2754  -31.6869 H   0  0  0  0  0  0  0  0  0  0  0  0
  -14.8276   -5.8280  -25.3558 H   0  0  0  0  0  0  0  0  0  0  0  0
  -20.3713   -7.6946  -25.8285 H   0  0  0  0  0  0  0  0  0  0  0  0
  -24.4303   -3.2769  -27.4486 H   0  0  0  0  0  0  0  0  0  0  0  0
  -19.9288   -5.0057  -28.7206 H   0  0  0  0  0  0  0  0  0  0  0  0
  -18.1902   -8.9381  -25.5513 H   0  0  0  0  0  0  0  0  0  0  0  0
  -24.2469   -2.6424  -25.1471 H   0  0  0  0  0  0  0  0  0  0  0  0
  -22.6127   -2.1190  -24.7933 H   0  0  0  0  0  0  0  0  0  0  0  0
  -23.3033   -6.3653  -25.3045 H   0  0  0  0  0  0  0  0  0  0  0  0
  -24.6781   -5.3011  -25.5047 H   0  0  0  0  0  0  0  0  0  0  0  0
  -20.8184   -3.6451  -24.4159 H   0  0  0  0  0  0  0  0  0  0  0  0
  -21.3127   -5.2928  -24.0122 H   0  0  0  0  0  0  0  0  0  0  0  0
  -22.7047   -3.3180  -22.5793 H   0  0  0  0  0  0  0  0  0  0  0  0
  -24.0661   -2.1804  -22.7641 H   0  0  0  0  0  0  0  0  0  0  0  0
  -24.8489   -6.2849  -23.3092 H   0  0  0  0  0  0  0  0  0  0  0  0
  -23.1834   -5.8103  -22.8657 H   0  0  0  0  0  0  0  0  0  0  0  0
  -24.1339   -4.5611  -20.9137 H   0  0  0  0  0  0  0  0  0  0  0  0
  -25.4346   -3.3551  -21.2205 H   0  0  0  0  0  0  0  0  0  0  0  0
  -25.7641   -5.1108  -21.4429 H   0  0  0  0  0  0  0  0  0  0  0  0
  -24.5561   -1.5827  -31.1148 H   0  0  0  0  0  0  0  0  0  0  0  0
  -22.8163   -1.5836  -30.6891 H   0  0  0  0  0  0  0  0  0  0  0  0
  -24.0433   -1.2342  -29.4431 H   0  0  0  0  0  0  0  0  0  0  0  0
  -22.9698   -4.2697  -32.0397 H   0  0  0  0  0  0  0  0  0  0  0  0
  -22.6650   -5.7353  -31.0934 H   0  0  0  0  0  0  0  0  0  0  0  0
  -16.2283   -7.7627  -25.4071 H   0  0  0  0  0  0  0  0  0  0  0  0
  -25.4275   -3.9917  -23.4899 H   0  0  0  0  0  0  0  0  0  0  0  0
  1  3  2  0  0  0  0
  1  4  1  0  0  0  0
  2  5  2  0  0  0  0
  2  6  1  0  0  0  0
  3  7  1  0  0  0  0
  4  8  2  0  0  0  0
  5  9  1  0  0  0  0
  6 14  2  0  0  0  0
  7 16  2  0  0  0  0
  8 16  1  0  0  0  0
  9 17  2  0  0  0  0
 10 13  1  0  0  0  0
 10 18  2  0  0  0  0
 11 15  1  0  0  0  0
 11 20  2  0  0  0  0
 12 19  1  0  0  0  0
 12 21  2  0  0  0  0
 13 31  2  0  0  0  0
 14 17  1  0  0  0  0
 14 18  1  0  0  0  0
 15 19  2  0  0  0  0
 15 27  1  0  0  0  0
 16 30  1  0  0  0  0
 17 31  1  0  0  0  0
 18 32  1  0  0  0  0
 19 32  1  0  0  0  0
 20 21  1  0  0  0  0
 20 34  1  0  0  0  0
 21 35  1  0  0  0  0
 22 25  1  0  0  0  0
 22 27  1  0  0  0  0
 23 26  1  0  0  0  0
 23 27  1  0  0  0  0
 24 27  1  0  0  0  0
 24 32  1  0  0  0  0
 25 33  1  0  0  0  0
 26 33  1  0  0  0  0
 28 33  1  0  0  0  0
 29 34  1  0  0  0  0
 30 35  1  0  0  0  0
  1 36  1  0  0  0  0
  2 37  1  0  0  0  0
  3 38  1  0  0  0  0
  4 39  1  0  0  0  0
  5 40  1  0  0  0  0
  6 41  1  0  0  0  0
  7 42  1  0  0  0  0
  8 43  1  0  0  0  0
  9 44  1  0  0  0  0
 10 45  1  0  0  0  0
 11 46  1  0  0  0  0
 12 47  1  0  0  0  0
 13 48  1  0  0  0  0
 22 49  1  0  0  0  0
 22 50  1  0  0  0  0
 23 51  1  0  0  0  0
 23 52  1  0  0  0  0
 24 53  1  0  0  0  0
 24 54  1  0  0  0  0
 25 55  1  0  0  0  0
 25 56  1  0  0  0  0
 26 57  1  0  0  0  0
 26 58  1  0  0  0  0
 28 59  1  0  0  0  0
 28 60  1  0  0  0  0
 28 61  1  0  0  0  0
 29 62  1  0  0  0  0
 29 63  1  0  0  0  0
 29 64  1  0  0  0  0
 30 65  1  0  0  0  0
 30 66  1  0  0  0  0
 31 67  1  0  0  0  0
 33 68  1  0  0  0  0
M  CHG  2  31   1  33   1
M  END
> <SMILES>
COc1cc2c(cc1OCc1ccccc1)N(CC12CCN(C)CC1)c1ccnc2ccccc12

> <FORMATTED_ID>
H3D-013364

> <MOLFORMULA>
C30H31N3O2

> <Exact Mass>
465.24

> <XLogP>
6.32

> <TPSA_NOPS>
37.8

> <s_m_source_file>
ligprep_h3d.sdf

> <i_m_source_file_index>
5129

> <i_lp_mmshare_version>
55123

> <i_f3d_flags>
0

> <s_epik_input>
W2NIXTFbY0hdW2NIXVtjSF1bY0hdYzFbQ0gyXU9jKGMoW2NIXTIpT1tDSDNdKVtjSF1jKGMyQzM0W0NIMl1bQ0gyXU4oW0NIM10pW0NIMl1bQ0gyXTQpTihbQ0gyXTMpYyhbY0hdW2NIXW41KWMoYzU2KVtjSF1bY0hdW2NIXVtjSF02

> <s_epik_cmdline>
J2VwaWtfcHl0aG9uJywgJy1waHQnLCAnMC41JywgJy1waCcsICc3LjUnLCAnLXRuJywgJzgnLCAnLW1hJywgJzUwMCcsICctaW1hZScsICc8aW5maWxlLm1hZT4nLCAnLW9tYWUnLCAnPG91dGZpbGUubWFlPic=

> <r_lp_tautomer_probability>
1

> <r_epik_Ionization_Penalty>
0.595948

> <r_epik_Ionization_Penalty_Charging>
0.595948

> <r_epik_Ionization_Penalty_Neutral>
3.07946e-10

> <r_epik_State_Penalty>
0.601128

> <r_epik_Charging_Adjusted_Penalty>
1.19708

> <i_epik_Tot_Q>
2

> <i_epik_Tot_abs_Q>
2

> <s_lp_Force_Field>
S-OPLS

> <r_lp_Energy>
93.3684

> <b_lp_Chiralities_Consistent>
1

> <s_lp_Variant>
ligprep_h3d.sdf:5129-2

> <ROCS_ShapeQuery>
_7L13

> <ROCS_TanimotoCombo>
0.746 

> <ROCS_ShapeTanimoto>
0.652 

> <ROCS_ColorTanimoto>
0.094 

> <ROCS_RefTversky>
0.782 

> <ROCS_RefColorTversky>
0.198 

> <ROCS_RefTverskyCombo>
0.979 

> <ROCS_FitTversky>
0.797 

> <ROCS_FitColorTversky>
0.152 

> <ROCS_FitTverskyCombo>
0.950 

> <ROCS_ColorScore>
-1.807

> <ROCS_Overlap>
1296.947

> <ROCS_Rank>
338                 

$$$$
ligprep_h3d.sdf:5321_463
  -OEChem-08212117123D

 75 81  0     0  0  0  0  0  0999 V2000
  -19.3251   -6.1045  -34.7147 C   0  0  0  0  0  0  0  0  0  0  0  0
  -20.1366   -4.9805  -34.8688 C   0  0  0  0  0  0  0  0  0  0  0  0
  -19.4062   -6.8690  -33.5508 C   0  0  0  0  0  0  0  0  0  0  0  0
  -21.0290   -4.6209  -33.8590 C   0  0  0  0  0  0  0  0  0  0  0  0
  -20.2986   -6.5093  -32.5409 C   0  0  0  0  0  0  0  0  0  0  0  0
  -23.5471   -3.9354  -27.7164 C   0  0  0  0  0  0  0  0  0  0  0  0
  -20.8691   -4.4885  -28.4158 C   0  0  0  0  0  0  0  0  0  0  0  0
  -14.7576   -4.9242  -26.3615 C   0  0  0  0  0  0  0  0  0  0  0  0
  -15.2320   -6.0919  -25.8119 C   0  0  0  0  0  0  0  0  0  0  0  0
  -22.6129   -4.2596  -26.7403 C   0  0  0  0  0  0  0  0  0  0  0  0
  -21.1100   -5.3853  -32.6950 C   0  0  0  0  0  0  0  0  0  0  0  0
  -21.2901   -4.5319  -27.0946 C   0  0  0  0  0  0  0  0  0  0  0  0
  -23.1374   -3.8880  -29.0504 C   0  0  0  0  0  0  0  0  0  0  0  0
  -21.8074   -4.1628  -29.3972 C   0  0  0  0  0  0  0  0  0  0  0  0
  -16.8813   -4.6910  -26.2991 C   0  0  0  0  0  0  0  0  0  0  0  0
  -18.2540   -4.3105  -26.3600 C   0  0  0  0  0  0  0  0  0  0  0  0
  -27.5239   -4.2338  -21.9378 C   0  0  0  0  0  0  0  0  0  0  0  0
  -28.7649   -4.7240  -21.8164 C   0  0  0  0  0  0  0  0  0  0  0  0
  -18.8576   -6.4542  -25.3703 C   0  0  0  0  0  0  0  0  0  0  0  0
  -17.5674   -6.8205  -25.3099 C   0  0  0  0  0  0  0  0  0  0  0  0
  -26.6037   -5.9799  -20.5705 C   0  0  0  0  0  0  0  0  0  0  0  0
  -26.3913   -4.8727  -21.2974 C   0  0  0  0  0  0  0  0  0  0  0  0
  -19.2254   -5.1439  -25.9183 C   0  0  0  0  0  0  0  0  0  0  0  0
  -28.9950   -5.9554  -21.0072 C   0  0  0  0  0  0  0  0  0  0  0  0
  -23.8465   -5.4746  -24.9059 C   0  0  0  0  0  0  0  0  0  0  0  0
  -23.2774   -3.0273  -24.6416 C   0  0  0  0  0  0  0  0  0  0  0  0
  -21.3934   -4.7562  -24.7655 C   0  0  0  0  0  0  0  0  0  0  0  0
  -24.1530   -5.5551  -23.4147 C   0  0  0  0  0  0  0  0  0  0  0  0
  -23.5877   -3.1253  -23.1524 C   0  0  0  0  0  0  0  0  0  0  0  0
  -22.8255   -4.3715  -25.2438 C   0  0  0  0  0  0  0  0  0  0  0  0
  -24.1899   -2.1886  -30.3390 C   0  0  0  0  0  0  0  0  0  0  0  0
  -22.0697   -4.9988  -31.6081 C   0  0  0  0  0  0  0  0  0  0  0  0
  -25.0518   -4.2597  -21.4848 C   0  0  0  0  0  0  0  0  0  0  0  0
  -15.7816   -4.0619  -26.6608 N   0  0  0  0  0  0  0  0  0  0  0  0
  -16.5944   -5.9435  -25.7711 N   0  0  0  0  0  0  0  0  0  0  0  0
  -27.8638   -6.5064  -20.4282 N   0  0  0  0  0  0  0  0  0  0  0  0
  -20.5374   -4.8315  -25.9543 N   0  0  0  0  0  0  0  0  0  0  0  0
  -24.6159   -4.2057  -22.9234 N   0  3  0  0  0  0  0  0  0  0  0  0
  -30.1266   -6.4174  -20.8873 O   0  0  0  0  0  0  0  0  0  0  0  0
  -24.0471   -3.5697  -30.0148 O   0  0  0  0  0  0  0  0  0  0  0  0
  -21.4151   -4.1137  -30.7025 O   0  0  0  0  0  0  0  0  0  0  0  0
  -18.6312   -6.3852  -35.5017 H   0  0  0  0  0  0  0  0  0  0  0  0
  -20.0744   -4.3858  -35.7755 H   0  0  0  0  0  0  0  0  0  0  0  0
  -18.7754   -7.7448  -33.4309 H   0  0  0  0  0  0  0  0  0  0  0  0
  -21.6572   -3.7434  -33.9876 H   0  0  0  0  0  0  0  0  0  0  0  0
  -20.3548   -7.1108  -31.6374 H   0  0  0  0  0  0  0  0  0  0  0  0
  -24.5778   -3.7221  -27.4501 H   0  0  0  0  0  0  0  0  0  0  0  0
  -19.8430   -4.6981  -28.6977 H   0  0  0  0  0  0  0  0  0  0  0  0
  -13.7283   -4.6613  -26.5570 H   0  0  0  0  0  0  0  0  0  0  0  0
  -14.7358   -6.9855  -25.4590 H   0  0  0  0  0  0  0  0  0  0  0  0
  -18.4994   -3.3353  -26.7692 H   0  0  0  0  0  0  0  0  0  0  0  0
  -27.3490   -3.3382  -22.5252 H   0  0  0  0  0  0  0  0  0  0  0  0
  -29.6169   -4.2522  -22.2908 H   0  0  0  0  0  0  0  0  0  0  0  0
  -19.6380   -7.1198  -25.0172 H   0  0  0  0  0  0  0  0  0  0  0  0
  -17.2460   -7.7765  -24.9148 H   0  0  0  0  0  0  0  0  0  0  0  0
  -25.8123   -6.5160  -20.0611 H   0  0  0  0  0  0  0  0  0  0  0  0
  -23.4866   -6.4519  -25.2535 H   0  0  0  0  0  0  0  0  0  0  0  0
  -24.7872   -5.2949  -25.4438 H   0  0  0  0  0  0  0  0  0  0  0  0
  -24.1759   -2.6653  -25.1597 H   0  0  0  0  0  0  0  0  0  0  0  0
  -22.5112   -2.2572  -24.8005 H   0  0  0  0  0  0  0  0  0  0  0  0
  -20.9832   -4.0134  -24.0705 H   0  0  0  0  0  0  0  0  0  0  0  0
  -21.3829   -5.7242  -24.2498 H   0  0  0  0  0  0  0  0  0  0  0  0
  -24.9649   -6.2665  -23.2305 H   0  0  0  0  0  0  0  0  0  0  0  0
  -23.2786   -5.8438  -22.8224 H   0  0  0  0  0  0  0  0  0  0  0  0
  -22.7039   -3.3742  -22.5558 H   0  0  0  0  0  0  0  0  0  0  0  0
  -24.0152   -2.1848  -22.7895 H   0  0  0  0  0  0  0  0  0  0  0  0
  -24.9451   -2.0732  -31.1203 H   0  0  0  0  0  0  0  0  0  0  0  0
  -23.2309   -1.7932  -30.6831 H   0  0  0  0  0  0  0  0  0  0  0  0
  -24.5068   -1.6448  -29.4459 H   0  0  0  0  0  0  0  0  0  0  0  0
  -22.9507   -4.4976  -32.0233 H   0  0  0  0  0  0  0  0  0  0  0  0
  -22.4126   -5.8836  -31.0610 H   0  0  0  0  0  0  0  0  0  0  0  0
  -24.2886   -4.8350  -20.9533 H   0  0  0  0  0  0  0  0  0  0  0  0
  -25.0466   -3.2296  -21.1181 H   0  0  0  0  0  0  0  0  0  0  0  0
  -27.9606   -7.3472  -19.8666 H   0  0  0  0  0  0  0  0  0  0  0  0
  -25.4510   -3.9524  -23.4694 H   0  0  0  0  0  0  0  0  0  0  0  0
  1  2  2  0  0  0  0
  1  3  1  0  0  0  0
  2  4  1  0  0  0  0
  3  5  2  0  0  0  0
  4 11  2  0  0  0  0
  5 11  1  0  0  0  0
  6 10  1  0  0  0  0
  6 13  2  0  0  0  0
  7 12  1  0  0  0  0
  7 14  2  0  0  0  0
  8  9  2  0  0  0  0
  8 34  1  0  0  0  0
  9 35  1  0  0  0  0
 10 12  2  0  0  0  0
 10 30  1  0  0  0  0
 11 32  1  0  0  0  0
 12 37  1  0  0  0  0
 13 14  1  0  0  0  0
 13 40  1  0  0  0  0
 14 41  1  0  0  0  0
 15 16  1  0  0  0  0
 15 34  2  0  0  0  0
 15 35  1  0  0  0  0
 16 23  2  0  0  0  0
 17 18  2  0  0  0  0
 17 22  1  0  0  0  0
 18 24  1  0  0  0  0
 19 20  2  0  0  0  0
 19 23  1  0  0  0  0
 20 35  1  0  0  0  0
 21 22  2  0  0  0  0
 21 36  1  0  0  0  0
 22 33  1  0  0  0  0
 23 37  1  0  0  0  0
 24 36  1  0  0  0  0
 24 39  2  0  0  0  0
 25 28  1  0  0  0  0
 25 30  1  0  0  0  0
 26 29  1  0  0  0  0
 26 30  1  0  0  0  0
 27 30  1  0  0  0  0
 27 37  1  0  0  0  0
 28 38  1  0  0  0  0
 29 38  1  0  0  0  0
 31 40  1  0  0  0  0
 32 41  1  0  0  0  0
 33 38  1  0  0  0  0
  1 42  1  0  0  0  0
  2 43  1  0  0  0  0
  3 44  1  0  0  0  0
  4 45  1  0  0  0  0
  5 46  1  0  0  0  0
  6 47  1  0  0  0  0
  7 48  1  0  0  0  0
  8 49  1  0  0  0  0
  9 50  1  0  0  0  0
 16 51  1  0  0  0  0
 17 52  1  0  0  0  0
 18 53  1  0  0  0  0
 19 54  1  0  0  0  0
 20 55  1  0  0  0  0
 21 56  1  0  0  0  0
 25 57  1  0  0  0  0
 25 58  1  0  0  0  0
 26 59  1  0  0  0  0
 26 60  1  0  0  0  0
 27 61  1  0  0  0  0
 27 62  1  0  0  0  0
 28 63  1  0  0  0  0
 28 64  1  0  0  0  0
 29 65  1  0  0  0  0
 29 66  1  0  0  0  0
 31 67  1  0  0  0  0
 31 68  1  0  0  0  0
 31 69  1  0  0  0  0
 32 70  1  0  0  0  0
 32 71  1  0  0  0  0
 33 72  1  0  0  0  0
 33 73  1  0  0  0  0
 36 74  1  0  0  0  0
 38 75  1  0  0  0  0
M  CHG  1  38   1
M  END
> <SMILES>
COc1cc2c(cc1OCc1ccccc1)N(CC12CCN(CC1)CC1=CNC(=O)C=C1)c1ccn2ccnc2c1

> <FORMATTED_ID>
H3D-014837

> <MOLFORMULA>
C33H33N5O3

> <Exact Mass>
547.26

> <XLogP>
5.82

> <TPSA_NOPS>
71.3

> <s_m_source_file>
ligprep_h3d.sdf

> <i_m_source_file_index>
5321

> <i_lp_mmshare_version>
55123

> <i_f3d_flags>
0

> <s_epik_input>
W2NIXTFbY0hdW2NIXVtjSF1bY0hdYzFbQ0gyXU9jKGMoW2NIXTIpT1tDSDNdKVtjSF1jKE4oW0NIMl0zKWMoW2NIXVtjSF00KVtjSF1jKG40NSluW2NIXVtjSF01KWMyQzM2W0NIMl1bQ0gyXU4oW0NIMl1bQ0gyXTYpW0NIMl1jN1tjSF1bbkhdYyg9TylbY0hdW2NIXTc=

> <s_epik_cmdline>
J2VwaWtfcHl0aG9uJywgJy1waHQnLCAnMC41JywgJy1waCcsICc3LjUnLCAnLXRuJywgJzgnLCAnLW1hJywgJzUwMCcsICctaW1hZScsICc8aW5maWxlLm1hZT4nLCAnLW9tYWUnLCAnPG91dGZpbGUubWFlPic=

> <r_lp_tautomer_probability>
0.999

> <r_epik_Ionization_Penalty>
0.505724

> <r_epik_Ionization_Penalty_Charging>
0.505724

> <r_epik_Ionization_Penalty_Neutral>
2.65566e-10

> <r_epik_State_Penalty>
0.525007

> <r_epik_Charging_Adjusted_Penalty>
1.03073

> <i_epik_Tot_Q>
1

> <i_epik_Tot_abs_Q>
1

> <s_lp_Force_Field>
S-OPLS

> <r_lp_Energy>
77.4291

> <b_lp_Chiralities_Consistent>
1

> <s_lp_Variant>
ligprep_h3d.sdf:5321-2

> <ROCS_ShapeQuery>
_7L13

> <ROCS_TanimotoCombo>
0.663 

> <ROCS_ShapeTanimoto>
0.577 

> <ROCS_ColorTanimoto>
0.087 

> <ROCS_RefTversky>
0.782 

> <ROCS_RefColorTversky>
0.198 

> <ROCS_RefTverskyCombo>
0.980 

> <ROCS_FitTversky>
0.687 

> <ROCS_FitColorTversky>
0.133 

> <ROCS_FitTverskyCombo>
0.820 

> <ROCS_ColorScore>
-1.836

> <ROCS_Overlap>
1308.342

> <ROCS_Rank>
339                 

$$$$
ligprep_h3d.sdf:5129_636
  -OEChem-08212117123D

 67 72  0     0  0  0  0  0  0999 V2000
  -19.6086   -6.5143  -34.7585 C   0  0  0  0  0  0  0  0  0  0  0  0
  -16.9308   -2.7032  -25.8333 C   0  0  0  0  0  0  0  0  0  0  0  0
  -20.3023   -5.3168  -34.9327 C   0  0  0  0  0  0  0  0  0  0  0  0
  -19.7574   -7.2411  -33.5772 C   0  0  0  0  0  0  0  0  0  0  0  0
  -15.7317   -3.3861  -25.6711 C   0  0  0  0  0  0  0  0  0  0  0  0
  -18.1247   -3.4162  -25.8939 C   0  0  0  0  0  0  0  0  0  0  0  0
  -21.1447   -4.8459  -33.9256 C   0  0  0  0  0  0  0  0  0  0  0  0
  -20.5998   -6.7702  -32.5701 C   0  0  0  0  0  0  0  0  0  0  0  0
  -15.7292   -4.7795  -25.5698 C   0  0  0  0  0  0  0  0  0  0  0  0
  -19.2728   -6.9433  -25.7459 C   0  0  0  0  0  0  0  0  0  0  0  0
  -23.5140   -3.7656  -27.7842 C   0  0  0  0  0  0  0  0  0  0  0  0
  -20.9232   -4.6138  -28.4878 C   0  0  0  0  0  0  0  0  0  0  0  0
  -18.0381   -7.5392  -25.5864 C   0  0  0  0  0  0  0  0  0  0  0  0
  -18.1219   -4.8177  -25.7919 C   0  0  0  0  0  0  0  0  0  0  0  0
  -22.5995   -4.1571  -26.8137 C   0  0  0  0  0  0  0  0  0  0  0  0
  -21.2935   -5.5726  -32.7442 C   0  0  0  0  0  0  0  0  0  0  0  0
  -16.9082   -5.5176  -25.6269 C   0  0  0  0  0  0  0  0  0  0  0  0
  -19.3090   -5.5603  -25.8497 C   0  0  0  0  0  0  0  0  0  0  0  0
  -21.3123   -4.5981  -27.1541 C   0  0  0  0  0  0  0  0  0  0  0  0
  -23.1233   -3.7966  -29.1213 C   0  0  0  0  0  0  0  0  0  0  0  0
  -21.8343   -4.2141  -29.4704 C   0  0  0  0  0  0  0  0  0  0  0  0
  -23.4018   -2.9424  -24.7304 C   0  0  0  0  0  0  0  0  0  0  0  0
  -23.6647   -5.4462  -24.9514 C   0  0  0  0  0  0  0  0  0  0  0  0
  -21.3101   -4.4154  -24.8620 C   0  0  0  0  0  0  0  0  0  0  0  0
  -23.6642   -3.0587  -23.2345 C   0  0  0  0  0  0  0  0  0  0  0  0
  -23.9730   -5.5384  -23.4604 C   0  0  0  0  0  0  0  0  0  0  0  0
  -22.7926   -4.2269  -25.3184 C   0  0  0  0  0  0  0  0  0  0  0  0
  -24.9844   -4.3194  -21.5374 C   0  0  0  0  0  0  0  0  0  0  0  0
  -24.0186   -2.0402  -30.4515 C   0  0  0  0  0  0  0  0  0  0  0  0
  -22.1993   -5.0666  -31.6604 C   0  0  0  0  0  0  0  0  0  0  0  0
  -16.8700   -6.8597  -25.5259 N   0  0  0  0  0  0  0  0  0  0  0  0
  -20.5541   -4.9459  -26.0132 N   0  0  0  0  0  0  0  0  0  0  0  0
  -24.5699   -4.2391  -22.9810 N   0  3  0  0  0  0  0  0  0  0  0  0
  -24.0100   -3.4182  -30.0847 O   0  0  0  0  0  0  0  0  0  0  0  0
  -21.4501   -4.2336  -30.7789 O   0  0  0  0  0  0  0  0  0  0  0  0
  -18.9537   -6.8815  -35.5433 H   0  0  0  0  0  0  0  0  0  0  0  0
  -16.9361   -1.6204  -25.9124 H   0  0  0  0  0  0  0  0  0  0  0  0
  -20.1874   -4.7513  -35.8528 H   0  0  0  0  0  0  0  0  0  0  0  0
  -19.2183   -8.1740  -33.4417 H   0  0  0  0  0  0  0  0  0  0  0  0
  -14.7952   -2.8382  -25.6214 H   0  0  0  0  0  0  0  0  0  0  0  0
  -19.0478   -2.8558  -26.0213 H   0  0  0  0  0  0  0  0  0  0  0  0
  -21.6810   -3.9117  -34.0699 H   0  0  0  0  0  0  0  0  0  0  0  0
  -20.7095   -7.3430  -31.6530 H   0  0  0  0  0  0  0  0  0  0  0  0
  -14.7769   -5.2910  -25.4421 H   0  0  0  0  0  0  0  0  0  0  0  0
  -20.1747   -7.5444  -25.7859 H   0  0  0  0  0  0  0  0  0  0  0  0
  -24.5113   -3.4366  -27.5103 H   0  0  0  0  0  0  0  0  0  0  0  0
  -19.9219   -4.9265  -28.7700 H   0  0  0  0  0  0  0  0  0  0  0  0
  -17.9482   -8.6170  -25.4998 H   0  0  0  0  0  0  0  0  0  0  0  0
  -24.3495   -2.7173  -25.2322 H   0  0  0  0  0  0  0  0  0  0  0  0
  -22.7480   -2.0834  -24.9113 H   0  0  0  0  0  0  0  0  0  0  0  0
  -23.1796   -6.3785  -25.2793 H   0  0  0  0  0  0  0  0  0  0  0  0
  -24.6189   -5.4077  -25.5002 H   0  0  0  0  0  0  0  0  0  0  0  0
  -20.8602   -3.4835  -24.5026 H   0  0  0  0  0  0  0  0  0  0  0  0
  -21.2489   -5.1443  -24.0416 H   0  0  0  0  0  0  0  0  0  0  0  0
  -22.7489   -3.2130  -22.6592 H   0  0  0  0  0  0  0  0  0  0  0  0
  -24.1791   -2.1677  -22.8671 H   0  0  0  0  0  0  0  0  0  0  0  0
  -24.7117   -6.3281  -23.2727 H   0  0  0  0  0  0  0  0  0  0  0  0
  -23.0752   -5.7379  -22.8609 H   0  0  0  0  0  0  0  0  0  0  0  0
  -24.0858   -4.4865  -20.9408 H   0  0  0  0  0  0  0  0  0  0  0  0
  -25.4607   -3.3732  -21.2733 H   0  0  0  0  0  0  0  0  0  0  0  0
  -25.6830   -5.1521  -21.4362 H   0  0  0  0  0  0  0  0  0  0  0  0
  -24.7697   -1.8737  -31.2275 H   0  0  0  0  0  0  0  0  0  0  0  0
  -23.0299   -1.7539  -30.8190 H   0  0  0  0  0  0  0  0  0  0  0  0
  -24.2664   -1.4400  -29.5729 H   0  0  0  0  0  0  0  0  0  0  0  0
  -23.0281   -4.4870  -32.0812 H   0  0  0  0  0  0  0  0  0  0  0  0
  -22.6261   -5.8996  -31.0914 H   0  0  0  0  0  0  0  0  0  0  0  0
  -25.4320   -4.0817  -23.5212 H   0  0  0  0  0  0  0  0  0  0  0  0
  1  3  2  0  0  0  0
  1  4  1  0  0  0  0
  2  5  2  0  0  0  0
  2  6  1  0  0  0  0
  3  7  1  0  0  0  0
  4  8  2  0  0  0  0
  5  9  1  0  0  0  0
  6 14  2  0  0  0  0
  7 16  2  0  0  0  0
  8 16  1  0  0  0  0
  9 17  2  0  0  0  0
 10 13  1  0  0  0  0
 10 18  2  0  0  0  0
 11 15  1  0  0  0  0
 11 20  2  0  0  0  0
 12 19  1  0  0  0  0
 12 21  2  0  0  0  0
 13 31  2  0  0  0  0
 14 17  1  0  0  0  0
 14 18  1  0  0  0  0
 15 19  2  0  0  0  0
 15 27  1  0  0  0  0
 16 30  1  0  0  0  0
 17 31  1  0  0  0  0
 18 32  1  0  0  0  0
 19 32  1  0  0  0  0
 20 21  1  0  0  0  0
 20 34  1  0  0  0  0
 21 35  1  0  0  0  0
 22 25  1  0  0  0  0
 22 27  1  0  0  0  0
 23 26  1  0  0  0  0
 23 27  1  0  0  0  0
 24 27  1  0  0  0  0
 24 32  1  0  0  0  0
 25 33  1  0  0  0  0
 26 33  1  0  0  0  0
 28 33  1  0  0  0  0
 29 34  1  0  0  0  0
 30 35  1  0  0  0  0
  1 36  1  0  0  0  0
  2 37  1  0  0  0  0
  3 38  1  0  0  0  0
  4 39  1  0  0  0  0
  5 40  1  0  0  0  0
  6 41  1  0  0  0  0
  7 42  1  0  0  0  0
  8 43  1  0  0  0  0
  9 44  1  0  0  0  0
 10 45  1  0  0  0  0
 11 46  1  0  0  0  0
 12 47  1  0  0  0  0
 13 48  1  0  0  0  0
 22 49  1  0  0  0  0
 22 50  1  0  0  0  0
 23 51  1  0  0  0  0
 23 52  1  0  0  0  0
 24 53  1  0  0  0  0
 24 54  1  0  0  0  0
 25 55  1  0  0  0  0
 25 56  1  0  0  0  0
 26 57  1  0  0  0  0
 26 58  1  0  0  0  0
 28 59  1  0  0  0  0
 28 60  1  0  0  0  0
 28 61  1  0  0  0  0
 29 62  1  0  0  0  0
 29 63  1  0  0  0  0
 29 64  1  0  0  0  0
 30 65  1  0  0  0  0
 30 66  1  0  0  0  0
 33 67  1  0  0  0  0
M  CHG  1  33   1
M  END
> <SMILES>
COc1cc2c(cc1OCc1ccccc1)N(CC12CCN(C)CC1)c1ccnc2ccccc12

> <FORMATTED_ID>
H3D-013364

> <MOLFORMULA>
C30H31N3O2

> <Exact Mass>
465.24

> <XLogP>
6.32

> <TPSA_NOPS>
37.8

> <s_m_source_file>
ligprep_h3d.sdf

> <i_m_source_file_index>
5129

> <i_lp_mmshare_version>
55123

> <i_f3d_flags>
0

> <s_epik_input>
W2NIXTFbY0hdW2NIXVtjSF1bY0hdYzFbQ0gyXU9jKGMoW2NIXTIpT1tDSDNdKVtjSF1jKGMyQzM0W0NIMl1bQ0gyXU4oW0NIM10pW0NIMl1bQ0gyXTQpTihbQ0gyXTMpYyhbY0hdW2NIXW41KWMoYzU2KVtjSF1bY0hdW2NIXVtjSF02

> <s_epik_cmdline>
J2VwaWtfcHl0aG9uJywgJy1waHQnLCAnMC41JywgJy1waCcsICc3LjUnLCAnLXRuJywgJzgnLCAnLW1hJywgJzUwMCcsICctaW1hZScsICc8aW5maWxlLm1hZT4nLCAnLW9tYWUnLCAnPG91dGZpbGUubWFlPic=

> <r_lp_tautomer_probability>
1

> <r_epik_Ionization_Penalty>
0.281386

> <r_epik_Ionization_Penalty_Charging>
0.00689193

> <r_epik_Ionization_Penalty_Neutral>
0.274494

> <r_epik_State_Penalty>
0.266787

> <r_epik_Charging_Adjusted_Penalty>
0.273678

> <i_epik_Tot_Q>
1

> <i_epik_Tot_abs_Q>
1

> <s_lp_Force_Field>
S-OPLS

> <r_lp_Energy>
87.9158

> <b_lp_Chiralities_Consistent>
1

> <s_lp_Variant>
ligprep_h3d.sdf:5129-1

> <ROCS_ShapeQuery>
_7L13

> <ROCS_TanimotoCombo>
0.750 

> <ROCS_ShapeTanimoto>
0.651 

> <ROCS_ColorTanimoto>
0.099 

> <ROCS_RefTversky>
0.781 

> <ROCS_RefColorTversky>
0.198 

> <ROCS_RefTverskyCombo>
0.980 

> <ROCS_FitTversky>
0.797 

> <ROCS_FitColorTversky>
0.165 

> <ROCS_FitTverskyCombo>
0.962 

> <ROCS_ColorScore>
-1.803

> <ROCS_Overlap>
1296.196

> <ROCS_Rank>
340                 

$$$$
ligprep_h3d.sdf:729_216
  -OEChem-08212117123D

 60 65  0     1  0  0  0  0  0999 V2000
  -20.9428   -5.0976  -29.5155 C   0  0  0  0  0  0  0  0  0  0  0  0
  -21.7420   -4.3555  -30.3877 C   0  0  0  0  0  0  0  0  0  0  0  0
  -21.0609   -4.8691  -28.1234 C   0  0  0  0  0  0  0  0  0  0  0  0
  -21.9856   -3.9463  -27.5797 C   0  0  0  0  0  0  0  0  0  0  0  0
  -22.6164   -3.4346  -29.8538 C   0  0  0  0  0  0  0  0  0  0  0  0
  -22.7693   -3.1961  -28.4878 C   0  0  0  0  0  0  0  0  0  0  0  0
  -21.9442   -4.2441  -31.7760 C   0  0  0  0  0  0  0  0  0  0  0  0
  -18.9041   -3.7094  -26.2477 C   0  0  0  0  0  0  0  0  0  0  0  0
  -19.1427   -5.9395  -25.0347 C   0  0  0  0  0  0  0  0  0  0  0  0
  -17.0033   -4.9801  -25.8560 C   0  0  0  0  0  0  0  0  0  0  0  0
  -20.1743   -5.6706  -27.2083 C   0  0  0  0  0  0  0  0  0  0  0  0
  -20.3176   -6.8852  -33.7675 C   0  0  0  0  0  0  0  0  0  0  0  0
  -20.7450   -6.3565  -32.3999 C   0  0  0  0  0  0  0  0  0  0  0  0
  -20.9142   -4.5839  -34.0387 C   0  0  0  0  0  0  0  0  0  0  0  0
  -23.0936   -2.8657  -25.6335 C   0  0  0  0  0  0  0  0  0  0  0  0
  -19.8915   -5.6232  -34.5116 C   0  0  2  0  0  0  0  0  0  0  0  0
  -21.1732   -4.4549  -25.2417 C   0  0  2  0  0  0  0  0  0  0  0  0
  -23.4442   -3.2089  -24.1828 C   0  0  1  0  0  0  0  0  0  0  0  0
  -21.0512   -3.5218  -24.0012 C   0  0  2  0  0  0  0  0  0  0  0  0
  -19.8307   -4.9006  -25.9092 C   0  0  2  0  0  0  0  0  0  0  0  0
  -24.3769   -4.4137  -24.0732 C   0  0  0  0  0  0  0  0  0  0  0  0
  -20.0678   -3.9571  -22.9221 C   0  0  0  0  0  0  0  0  0  0  0  0
  -19.8662   -5.7972  -36.0199 C   0  0  0  0  0  0  0  0  0  0  0  0
  -22.8670   -3.3272  -32.0819 N   0  0  0  0  0  0  0  0  0  0  0  0
  -17.6293   -4.0020  -26.5118 N   0  5  0  0  0  0  0  0  0  0  0  0
  -17.7653   -5.8662  -25.0966 N   0  0  0  0  0  0  0  0  0  0  0  0
  -22.0967   -3.7849  -26.1964 N   0  0  3  0  0  0  0  0  0  0  0  0
  -21.2427   -5.0124  -32.6807 N   0  0  0  0  0  0  0  0  0  0  0  0
  -19.3625   -2.5743  -26.3756 O   0  0  0  0  0  0  0  0  0  0  0  0
  -19.7388   -6.8062  -24.3992 O   0  0  0  0  0  0  0  0  0  0  0  0
  -15.7816   -5.1459  -25.9075 O   0  0  0  0  0  0  0  0  0  0  0  0
  -23.2898   -2.8143  -30.8611 O   0  0  0  0  0  0  0  0  0  0  0  0
  -22.3188   -3.4296  -23.3376 O   0  0  0  0  0  0  0  0  0  0  0  0
  -19.3297   -7.0742  -36.3244 O   0  0  0  0  0  0  0  0  0  0  0  0
  -23.5770   -2.1975  -28.1111 F   0  0  0  0  0  0  0  0  0  0  0  0
  -20.2368   -5.8293  -29.8979 H   0  0  0  0  0  0  0  0  0  0  0  0
  -20.6964   -6.6095  -26.9780 H   0  0  0  0  0  0  0  0  0  0  0  0
  -19.2529   -5.9493  -27.7364 H   0  0  0  0  0  0  0  0  0  0  0  0
  -19.5067   -7.6158  -33.6908 H   0  0  0  0  0  0  0  0  0  0  0  0
  -21.1686   -7.3661  -34.2653 H   0  0  0  0  0  0  0  0  0  0  0  0
  -21.5103   -6.9977  -31.9482 H   0  0  0  0  0  0  0  0  0  0  0  0
  -19.8866   -6.2969  -31.7200 H   0  0  0  0  0  0  0  0  0  0  0  0
  -20.4883   -3.5739  -34.0563 H   0  0  0  0  0  0  0  0  0  0  0  0
  -21.8207   -4.5946  -34.6567 H   0  0  0  0  0  0  0  0  0  0  0  0
  -24.0044   -2.9425  -26.2624 H   0  0  0  0  0  0  0  0  0  0  0  0
  -22.8269   -1.7979  -25.6678 H   0  0  0  0  0  0  0  0  0  0  0  0
  -18.8923   -5.3246  -34.1671 H   0  0  0  0  0  0  0  0  0  0  0  0
  -21.7090   -5.3604  -24.9140 H   0  0  0  0  0  0  0  0  0  0  0  0
  -24.0285   -2.3309  -23.7370 H   0  0  0  0  0  0  0  0  0  0  0  0
  -20.7646   -2.4985  -24.3036 H   0  0  0  0  0  0  0  0  0  0  0  0
  -23.8905   -5.3003  -24.4802 H   0  0  0  0  0  0  0  0  0  0  0  0
  -25.2948   -4.2267  -24.6307 H   0  0  0  0  0  0  0  0  0  0  0  0
  -24.6287   -4.5967  -23.0284 H   0  0  0  0  0  0  0  0  0  0  0  0
  -20.3060   -4.9662  -22.5857 H   0  0  0  0  0  0  0  0  0  0  0  0
  -20.1236   -3.2783  -22.0711 H   0  0  0  0  0  0  0  0  0  0  0  0
  -19.0519   -3.9465  -23.3172 H   0  0  0  0  0  0  0  0  0  0  0  0
  -19.2396   -5.0294  -36.4796 H   0  0  0  0  0  0  0  0  0  0  0  0
  -20.8779   -5.7303  -36.4264 H   0  0  0  0  0  0  0  0  0  0  0  0
  -17.2511   -6.5309  -24.5264 H   0  0  0  0  0  0  0  0  0  0  0  0
  -19.3261   -7.1564  -37.2927 H   0  0  0  0  0  0  0  0  0  0  0  0
  1  2  2  0  0  0  0
  1  3  1  0  0  0  0
  2  5  1  0  0  0  0
  2  7  1  0  0  0  0
  3  4  2  0  0  0  0
  3 11  1  0  0  0  0
  4  6  1  0  0  0  0
  4 27  1  0  0  0  0
  5  6  2  0  0  0  0
  5 32  1  0  0  0  0
  6 35  1  0  0  0  0
  7 24  2  0  0  0  0
  7 28  1  0  0  0  0
  8 20  1  0  0  0  0
  8 25  1  0  0  0  0
  8 29  2  0  0  0  0
  9 20  1  0  0  0  0
  9 26  1  0  0  0  0
  9 30  2  0  0  0  0
 10 25  1  0  0  0  0
 10 26  1  0  0  0  0
 10 31  2  0  0  0  0
 11 20  1  0  0  0  0
 12 13  1  0  0  0  0
 12 16  1  0  0  0  0
 13 28  1  0  0  0  0
 14 16  1  0  0  0  0
 14 28  1  0  0  0  0
 15 18  1  0  0  0  0
 15 27  1  0  0  0  0
 16 23  1  0  0  0  0
 17 19  1  0  0  0  0
 17 20  1  0  0  0  0
 17 27  1  0  0  0  0
 18 21  1  0  0  0  0
 18 33  1  0  0  0  0
 19 22  1  0  0  0  0
 19 33  1  0  0  0  0
 23 34  1  0  0  0  0
 24 32  1  0  0  0  0
  1 36  1  0  0  0  0
 11 37  1  0  0  0  0
 11 38  1  0  0  0  0
 12 39  1  0  0  0  0
 12 40  1  0  0  0  0
 13 41  1  0  0  0  0
 13 42  1  0  0  0  0
 14 43  1  0  0  0  0
 14 44  1  0  0  0  0
 15 45  1  0  0  0  0
 15 46  1  0  0  0  0
 16 47  1  0  0  0  0
 17 48  1  0  0  0  0
 18 49  1  0  0  0  0
 19 50  1  0  0  0  0
 21 51  1  0  0  0  0
 21 52  1  0  0  0  0
 21 53  1  0  0  0  0
 22 54  1  0  0  0  0
 22 55  1  0  0  0  0
 22 56  1  0  0  0  0
 23 57  1  0  0  0  0
 23 58  1  0  0  0  0
 26 59  1  0  0  0  0
 34 60  1  0  0  0  0
M  CHG  1  25  -1
M  END
> <SMILES>
C[C@@H]1CN2[C@H]([C@H](C)O1)C1(Cc3cc4c(noc4c(c32)F)N2CC[C@@H](CO)C2)C(=O)NC(=O)NC1=O

> <FORMATTED_ID>
H3D-004959

> <MOLFORMULA>
C23H26FN5O6

> <Exact Mass>
487.19

> <XLogP>
0.06

> <TPSA_NOPS>
137.5

> <s_m_source_file>
ligprep_h3d.sdf

> <i_m_source_file_index>
729

> <i_lp_mmshare_version>
55123

> <i_f3d_flags>
0

> <s_epik_input>
Tz1DMVtOSF1DKD1PKVtOSF1DKD1PKUMxMltDQEBIXTNOKFtDSDJdW0NAQEhdKFtDSDNdKU9bQ0BIXTNbQ0gzXSljNGMoW0NIMl0yKVtjSF1jNWMoYzRGKW9uYzVONltDSDJdW0NIMl1bQ0BIXShbQ0gyXTYpW0NIMl1bT0hd

> <s_epik_cmdline>
J2VwaWtfcHl0aG9uJywgJy1waHQnLCAnMC41JywgJy1waCcsICc3LjUnLCAnLXRuJywgJzgnLCAnLW1hJywgJzUwMCcsICctaW1hZScsICc8aW5maWxlLm1hZT4nLCAnLW9tYWUnLCAnPG91dGZpbGUubWFlPic=

> <r_lp_tautomer_probability>
1

> <r_epik_Ionization_Penalty>
0.455396

> <r_epik_Ionization_Penalty_Charging>
0.455373

> <r_epik_Ionization_Penalty_Neutral>
2.23366e-05

> <r_epik_State_Penalty>
0.458483

> <r_epik_Charging_Adjusted_Penalty>
0.913857

> <i_epik_Tot_Q>
-1

> <i_epik_Tot_abs_Q>
1

> <s_lp_Force_Field>
S-OPLS

> <r_lp_Energy>
46.7419

> <b_lp_Chiralities_Consistent>
1

> <s_lp_Variant>
ligprep_h3d.sdf:729-2

> <ROCS_ShapeQuery>
_7L13

> <ROCS_TanimotoCombo>
0.767 

> <ROCS_ShapeTanimoto>
0.643 

> <ROCS_ColorTanimoto>
0.124 

> <ROCS_RefTversky>
0.781 

> <ROCS_RefColorTversky>
0.295 

> <ROCS_RefTverskyCombo>
1.077 

> <ROCS_FitTversky>
0.784 

> <ROCS_FitColorTversky>
0.176 

> <ROCS_FitTverskyCombo>
0.960 

> <ROCS_ColorScore>
-2.761

> <ROCS_Overlap>
1297.266

> <ROCS_Rank>
341                 

$$$$
ligprep_h3d.sdf:5339_1124
  -OEChem-08212117123D

 62 67  0     0  0  0  0  0  0999 V2000
  -21.1677   -6.4596  -33.3704 C   0  0  0  0  0  0  0  0  0  0  0  0
  -20.2858   -4.2250  -33.1143 C   0  0  0  0  0  0  0  0  0  0  0  0
  -20.2445   -6.7076  -34.3862 C   0  0  0  0  0  0  0  0  0  0  0  0
  -19.3625   -4.4729  -34.1300 C   0  0  0  0  0  0  0  0  0  0  0  0
  -23.7448   -4.1120  -27.7328 C   0  0  0  0  0  0  0  0  0  0  0  0
  -21.0312   -4.3658  -28.4421 C   0  0  0  0  0  0  0  0  0  0  0  0
  -15.1389   -6.5398  -25.3283 C   0  0  0  0  0  0  0  0  0  0  0  0
  -15.1774   -5.2617  -25.8339 C   0  0  0  0  0  0  0  0  0  0  0  0
  -22.7738   -4.3569  -26.7692 C   0  0  0  0  0  0  0  0  0  0  0  0
  -21.1884   -5.2183  -32.7344 C   0  0  0  0  0  0  0  0  0  0  0  0
  -21.4227   -4.4862  -27.1135 C   0  0  0  0  0  0  0  0  0  0  0  0
  -23.3515   -4.0006  -29.0657 C   0  0  0  0  0  0  0  0  0  0  0  0
  -22.0025   -4.1255  -29.4180 C   0  0  0  0  0  0  0  0  0  0  0  0
  -19.3419   -5.7142  -34.7660 C   0  0  0  0  0  0  0  0  0  0  0  0
  -17.2165   -6.0661  -25.4948 C   0  0  0  0  0  0  0  0  0  0  0  0
  -18.6396   -5.9806  -25.5137 C   0  0  0  0  0  0  0  0  0  0  0  0
  -18.4588   -3.7221  -26.4113 C   0  0  0  0  0  0  0  0  0  0  0  0
  -17.1182   -3.7941  -26.3961 C   0  0  0  0  0  0  0  0  0  0  0  0
  -19.2618   -4.8605  -25.9512 C   0  0  0  0  0  0  0  0  0  0  0  0
  -23.2808   -3.0895  -24.6652 C   0  0  0  0  0  0  0  0  0  0  0  0
  -24.0196   -5.5036  -24.8817 C   0  0  0  0  0  0  0  0  0  0  0  0
  -21.5154   -4.9474  -24.8538 C   0  0  0  0  0  0  0  0  0  0  0  0
  -23.5636   -3.1509  -23.1688 C   0  0  0  0  0  0  0  0  0  0  0  0
  -24.2579   -5.5485  -23.3788 C   0  0  0  0  0  0  0  0  0  0  0  0
  -22.9445   -4.4701  -25.2730 C   0  0  0  0  0  0  0  0  0  0  0  0
  -24.5904   -2.4168  -30.3355 C   0  0  0  0  0  0  0  0  0  0  0  0
  -22.1808   -4.9511  -31.6411 C   0  0  0  0  0  0  0  0  0  0  0  0
  -16.4024   -7.0320  -25.1204 N   0  0  0  0  0  0  0  0  0  0  0  0
  -16.5098   -4.9567  -25.9414 N   0  0  0  0  0  0  0  0  0  0  0  0
  -20.6105   -4.7291  -25.9889 N   0  0  0  0  0  0  0  0  0  0  0  0
  -24.6107   -4.1792  -22.9015 N   0  3  0  0  0  0  0  0  0  0  0  0
  -24.2954   -3.7764  -30.0231 O   0  0  0  0  0  0  0  0  0  0  0  0
  -21.6206   -4.0158  -30.7226 O   0  0  0  0  0  0  0  0  0  0  0  0
  -18.4535   -5.9531  -35.7396 F   0  0  0  0  0  0  0  0  0  0  0  0
  -21.8675   -7.2395  -33.0819 H   0  0  0  0  0  0  0  0  0  0  0  0
  -20.2943   -3.2549  -32.6242 H   0  0  0  0  0  0  0  0  0  0  0  0
  -20.2278   -7.6740  -34.8808 H   0  0  0  0  0  0  0  0  0  0  0  0
  -18.6600   -3.6997  -34.4263 H   0  0  0  0  0  0  0  0  0  0  0  0
  -24.7908   -4.0196  -27.4584 H   0  0  0  0  0  0  0  0  0  0  0  0
  -19.9885   -4.4489  -28.7330 H   0  0  0  0  0  0  0  0  0  0  0  0
  -14.2632   -7.1307  -25.1031 H   0  0  0  0  0  0  0  0  0  0  0  0
  -14.3992   -4.5661  -26.1164 H   0  0  0  0  0  0  0  0  0  0  0  0
  -19.2105   -6.8372  -25.1687 H   0  0  0  0  0  0  0  0  0  0  0  0
  -18.9600   -2.8260  -26.7612 H   0  0  0  0  0  0  0  0  0  0  0  0
  -16.4825   -2.9809  -26.7248 H   0  0  0  0  0  0  0  0  0  0  0  0
  -24.1624   -2.6620  -25.1668 H   0  0  0  0  0  0  0  0  0  0  0  0
  -22.4639   -2.3768  -24.8520 H   0  0  0  0  0  0  0  0  0  0  0  0
  -23.7417   -6.5036  -25.2315 H   0  0  0  0  0  0  0  0  0  0  0  0
  -24.9677   -5.2595  -25.3753 H   0  0  0  0  0  0  0  0  0  0  0  0
  -21.1431   -4.3642  -24.0010 H   0  0  0  0  0  0  0  0  0  0  0  0
  -21.5030   -6.0009  -24.5522 H   0  0  0  0  0  0  0  0  0  0  0  0
  -22.6772   -3.4237  -22.5839 H   0  0  0  0  0  0  0  0  0  0  0  0
  -23.9533   -2.1961  -22.7981 H   0  0  0  0  0  0  0  0  0  0  0  0
  -25.0997   -6.1982  -23.1292 H   0  0  0  0  0  0  0  0  0  0  0  0
  -23.3776   -5.8714  -22.8188 H   0  0  0  0  0  0  0  0  0  0  0  0
  -25.3579   -2.3789  -31.1124 H   0  0  0  0  0  0  0  0  0  0  0  0
  -23.6824   -1.9159  -30.6805 H   0  0  0  0  0  0  0  0  0  0  0  0
  -24.9603   -1.9178  -29.4366 H   0  0  0  0  0  0  0  0  0  0  0  0
  -23.1105   -4.5391  -32.0480 H   0  0  0  0  0  0  0  0  0  0  0  0
  -22.4275   -5.8752  -31.1072 H   0  0  0  0  0  0  0  0  0  0  0  0
  -24.7965   -4.2146  -21.8900 H   0  0  0  0  0  0  0  0  0  0  0  0
  -25.4977   -3.8852  -23.3344 H   0  0  0  0  0  0  0  0  0  0  0  0
  1  3  1  0  0  0  0
  1 10  2  0  0  0  0
  2  4  2  0  0  0  0
  2 10  1  0  0  0  0
  3 14  2  0  0  0  0
  4 14  1  0  0  0  0
  5  9  1  0  0  0  0
  5 12  2  0  0  0  0
  6 11  1  0  0  0  0
  6 13  2  0  0  0  0
  7  8  2  0  0  0  0
  7 28  1  0  0  0  0
  8 29  1  0  0  0  0
  9 11  2  0  0  0  0
  9 25  1  0  0  0  0
 10 27  1  0  0  0  0
 11 30  1  0  0  0  0
 12 13  1  0  0  0  0
 12 32  1  0  0  0  0
 13 33  1  0  0  0  0
 14 34  1  0  0  0  0
 15 16  1  0  0  0  0
 15 28  2  0  0  0  0
 15 29  1  0  0  0  0
 16 19  2  0  0  0  0
 17 18  2  0  0  0  0
 17 19  1  0  0  0  0
 18 29  1  0  0  0  0
 19 30  1  0  0  0  0
 20 23  1  0  0  0  0
 20 25  1  0  0  0  0
 21 24  1  0  0  0  0
 21 25  1  0  0  0  0
 22 25  1  0  0  0  0
 22 30  1  0  0  0  0
 23 31  1  0  0  0  0
 24 31  1  0  0  0  0
 26 32  1  0  0  0  0
 27 33  1  0  0  0  0
  1 35  1  0  0  0  0
  2 36  1  0  0  0  0
  3 37  1  0  0  0  0
  4 38  1  0  0  0  0
  5 39  1  0  0  0  0
  6 40  1  0  0  0  0
  7 41  1  0  0  0  0
  8 42  1  0  0  0  0
 16 43  1  0  0  0  0
 17 44  1  0  0  0  0
 18 45  1  0  0  0  0
 20 46  1  0  0  0  0
 20 47  1  0  0  0  0
 21 48  1  0  0  0  0
 21 49  1  0  0  0  0
 22 50  1  0  0  0  0
 22 51  1  0  0  0  0
 23 52  1  0  0  0  0
 23 53  1  0  0  0  0
 24 54  1  0  0  0  0
 24 55  1  0  0  0  0
 26 56  1  0  0  0  0
 26 57  1  0  0  0  0
 26 58  1  0  0  0  0
 27 59  1  0  0  0  0
 27 60  1  0  0  0  0
 31 61  1  0  0  0  0
 31 62  1  0  0  0  0
M  CHG  1  31   1
M  END
> <SMILES>
COc1cc2c(cc1OCc1ccc(cc1)F)N(CC12CCNCC1)c1ccn2ccnc2c1

> <FORMATTED_ID>
H3D-014962

> <MOLFORMULA>
C27H27FN4O2

> <Exact Mass>
458.21

> <XLogP>
5.86

> <TPSA_NOPS>
51

> <s_m_source_file>
ligprep_h3d.sdf

> <i_m_source_file_index>
5339

> <i_lp_mmshare_version>
55123

> <i_f3d_flags>
0

> <s_epik_input>
W2NIXTFbY0hdYyhGKVtjSF1bY0hdYzFbQ0gyXU9jKGMoW2NIXTIpT1tDSDNdKVtjSF1jKGMyQzM0W0NIMl1bQ0gyXVtOSF1bQ0gyXVtDSDJdNClOKFtDSDJdMyljKFtjSF1bY0hdNSlbY0hdYyhuNTYpbltjSF1bY0hdNg==

> <s_epik_cmdline>
J2VwaWtfcHl0aG9uJywgJy1waHQnLCAnMC41JywgJy1waCcsICc3LjUnLCAnLXRuJywgJzgnLCAnLW1hJywgJzUwMCcsICctaW1hZScsICc8aW5maWxlLm1hZT4nLCAnLW9tYWUnLCAnPG91dGZpbGUubWFlPic=

> <r_lp_tautomer_probability>
1

> <r_epik_Ionization_Penalty>
0.425285

> <r_epik_Ionization_Penalty_Charging>
0.425285

> <r_epik_Ionization_Penalty_Neutral>
6.58568e-10

> <r_epik_State_Penalty>
0.423923

> <r_epik_Charging_Adjusted_Penalty>
0.849208

> <i_epik_Tot_Q>
1

> <i_epik_Tot_abs_Q>
1

> <s_lp_Force_Field>
S-OPLS

> <r_lp_Energy>
72.4922

> <b_lp_Chiralities_Consistent>
1

> <s_lp_Variant>
ligprep_h3d.sdf:5339-2

> <ROCS_ShapeQuery>
_7L13

> <ROCS_TanimotoCombo>
0.763 

> <ROCS_ShapeTanimoto>
0.661 

> <ROCS_ColorTanimoto>
0.102 

> <ROCS_RefTversky>
0.781 

> <ROCS_RefColorTversky>
0.204 

> <ROCS_RefTverskyCombo>
0.985 

> <ROCS_FitTversky>
0.811 

> <ROCS_FitColorTversky>
0.170 

> <ROCS_FitTverskyCombo>
0.981 

> <ROCS_ColorScore>
-1.857

> <ROCS_Overlap>
1294.773

> <ROCS_Rank>
342                 

$$$$
ligprep_h3d.sdf:449_181
  -OEChem-08212117123D

 56 61  0     1  0  0  0  0  0999 V2000
  -21.0925   -5.2054  -29.5431 C   0  0  0  0  0  0  0  0  0  0  0  0
  -21.7498   -4.4478  -30.5163 C   0  0  0  0  0  0  0  0  0  0  0  0
  -21.2738   -4.8677  -28.1816 C   0  0  0  0  0  0  0  0  0  0  0  0
  -22.1295   -3.8149  -27.7726 C   0  0  0  0  0  0  0  0  0  0  0  0
  -22.5523   -3.4036  -30.1089 C   0  0  0  0  0  0  0  0  0  0  0  0
  -22.7668   -3.0513  -28.7774 C   0  0  0  0  0  0  0  0  0  0  0  0
  -21.8487   -4.4174  -31.9200 C   0  0  0  0  0  0  0  0  0  0  0  0
  -19.2192   -3.7062  -26.2434 C   0  0  0  0  0  0  0  0  0  0  0  0
  -19.5580   -5.7935  -24.8824 C   0  0  0  0  0  0  0  0  0  0  0  0
  -17.3866   -4.9958  -25.8122 C   0  0  0  0  0  0  0  0  0  0  0  0
  -20.2956   -4.9277  -33.7600 C   0  0  0  0  0  0  0  0  0  0  0  0
  -24.9537   -5.2320  -23.8924 C   0  0  0  0  0  0  0  0  0  0  0  0
  -20.5400   -5.6896  -27.1501 C   0  0  0  0  0  0  0  0  0  0  0  0
  -23.4607   -2.7195  -25.9843 C   0  0  0  0  0  0  0  0  0  0  0  0
  -23.9079   -3.0913  -24.5711 C   0  0  0  0  0  0  0  0  0  0  0  0
  -22.5373   -5.1708  -24.6345 C   0  0  0  0  0  0  0  0  0  0  0  0
  -20.1313   -7.1846  -33.4971 C   0  0  0  0  0  0  0  0  0  0  0  0
  -21.5495   -4.2270  -25.3554 C   0  0  1  0  0  0  0  0  0  0  0  0
  -21.3884   -6.7239  -32.7855 C   0  0  2  0  0  0  0  0  0  0  0  0
  -20.2213   -4.8537  -25.8937 C   0  0  2  0  0  0  0  0  0  0  0  0
  -25.8658   -4.4612  -22.9689 C   0  0  0  0  0  0  0  0  0  0  0  0
  -22.6505   -7.1316  -33.5425 C   0  0  0  0  0  0  0  0  0  0  0  0
  -22.6444   -3.4342  -32.3514 N   0  0  0  0  0  0  0  0  0  0  0  0
  -18.0017   -4.1154  -26.6057 N   0  5  0  0  0  0  0  0  0  0  0  0
  -18.1730   -5.7386  -24.9287 N   0  0  0  0  0  0  0  0  0  0  0  0
  -22.3180   -3.5366  -26.4171 N   0  0  3  0  0  0  0  0  0  0  0  0
  -21.2096   -5.2929  -32.7759 N   0  0  0  0  0  0  0  0  0  0  0  0
  -23.8417   -4.5392  -24.3734 N   0  0  0  0  0  0  0  0  0  0  0  0
  -19.5659   -2.5262  -26.2502 O   0  0  0  0  0  0  0  0  0  0  0  0
  -20.1533   -6.5974  -24.1713 O   0  0  0  0  0  0  0  0  0  0  0  0
  -16.1713   -5.2042  -25.8490 O   0  0  0  0  0  0  0  0  0  0  0  0
  -19.9945   -3.7990  -34.1257 O   0  0  0  0  0  0  0  0  0  0  0  0
  -25.2159   -6.4047  -24.1682 O   0  0  0  0  0  0  0  0  0  0  0  0
  -23.0873   -2.7922  -31.2010 O   0  0  0  0  0  0  0  0  0  0  0  0
  -19.7474   -6.0666  -34.3056 O   0  0  0  0  0  0  0  0  0  0  0  0
  -23.5919   -2.0318  -28.5092 F   0  0  0  0  0  0  0  0  0  0  0  0
  -20.4634   -6.0437  -29.8270 H   0  0  0  0  0  0  0  0  0  0  0  0
  -21.1508   -6.5552  -26.8805 H   0  0  0  0  0  0  0  0  0  0  0  0
  -19.6208   -6.0644  -27.6086 H   0  0  0  0  0  0  0  0  0  0  0  0
  -24.2935   -2.8595  -26.6767 H   0  0  0  0  0  0  0  0  0  0  0  0
  -23.1921   -1.6614  -25.9475 H   0  0  0  0  0  0  0  0  0  0  0  0
  -23.2552   -2.6337  -23.8284 H   0  0  0  0  0  0  0  0  0  0  0  0
  -24.9182   -2.7292  -24.3962 H   0  0  0  0  0  0  0  0  0  0  0  0
  -22.7483   -6.0594  -25.2306 H   0  0  0  0  0  0  0  0  0  0  0  0
  -22.1260   -5.5008  -23.6812 H   0  0  0  0  0  0  0  0  0  0  0  0
  -19.3147   -7.3952  -32.7980 H   0  0  0  0  0  0  0  0  0  0  0  0
  -20.2883   -8.0581  -34.1369 H   0  0  0  0  0  0  0  0  0  0  0  0
  -21.2856   -3.4155  -24.6445 H   0  0  0  0  0  0  0  0  0  0  0  0
  -21.4279   -7.1109  -31.7613 H   0  0  0  0  0  0  0  0  0  0  0  0
  -26.6264   -3.9624  -23.5594 H   0  0  0  0  0  0  0  0  0  0  0  0
  -25.2798   -3.7301  -22.4225 H   0  0  0  0  0  0  0  0  0  0  0  0
  -26.3286   -5.1518  -22.2722 H   0  0  0  0  0  0  0  0  0  0  0  0
  -22.6110   -6.7470  -34.5603 H   0  0  0  0  0  0  0  0  0  0  0  0
  -23.5283   -6.7263  -33.0420 H   0  0  0  0  0  0  0  0  0  0  0  0
  -22.7274   -8.2173  -33.5743 H   0  0  0  0  0  0  0  0  0  0  0  0
  -17.6771   -6.3007  -24.2446 H   0  0  0  0  0  0  0  0  0  0  0  0
  1  2  2  0  0  0  0
  1  3  1  0  0  0  0
  2  5  1  0  0  0  0
  2  7  1  0  0  0  0
  3  4  2  0  0  0  0
  3 13  1  0  0  0  0
  4  6  1  0  0  0  0
  4 26  1  0  0  0  0
  5  6  2  0  0  0  0
  5 34  1  0  0  0  0
  6 36  1  0  0  0  0
  7 23  2  0  0  0  0
  7 27  1  0  0  0  0
  8 20  1  0  0  0  0
  8 24  1  0  0  0  0
  8 29  2  0  0  0  0
  9 20  1  0  0  0  0
  9 25  1  0  0  0  0
  9 30  2  0  0  0  0
 10 24  1  0  0  0  0
 10 25  1  0  0  0  0
 10 31  2  0  0  0  0
 11 27  1  0  0  0  0
 11 32  2  0  0  0  0
 11 35  1  0  0  0  0
 12 21  1  0  0  0  0
 12 28  1  0  0  0  0
 12 33  2  0  0  0  0
 13 20  1  0  0  0  0
 14 15  1  0  0  0  0
 14 26  1  0  0  0  0
 15 28  1  0  0  0  0
 16 18  1  0  0  0  0
 16 28  1  0  0  0  0
 17 19  1  0  0  0  0
 17 35  1  0  0  0  0
 18 20  1  0  0  0  0
 18 26  1  0  0  0  0
 19 22  1  0  0  0  0
 19 27  1  0  0  0  0
 23 34  1  0  0  0  0
  1 37  1  0  0  0  0
 13 38  1  0  0  0  0
 13 39  1  0  0  0  0
 14 40  1  0  0  0  0
 14 41  1  0  0  0  0
 15 42  1  0  0  0  0
 15 43  1  0  0  0  0
 16 44  1  0  0  0  0
 16 45  1  0  0  0  0
 17 46  1  0  0  0  0
 17 47  1  0  0  0  0
 18 48  1  0  0  0  0
 19 49  1  0  0  0  0
 21 50  1  0  0  0  0
 21 51  1  0  0  0  0
 21 52  1  0  0  0  0
 22 53  1  0  0  0  0
 22 54  1  0  0  0  0
 22 55  1  0  0  0  0
 25 56  1  0  0  0  0
M  CHG  1  24  -1
M  END
> <SMILES>
C[C@H]1COC(=O)N1c1noc2c(c3c(cc12)CC1(C2CN(CCN23)C(=O)C)C(=O)NC(=O)NC1=O)F

> <FORMATTED_ID>
H3D-003969

> <MOLFORMULA>
C22H21FN6O7

> <Exact Mass>
500.15

> <XLogP>
-0.03

> <TPSA_NOPS>
154.7

> <s_m_source_file>
ligprep_h3d.sdf

> <i_m_source_file_index>
449

> <i_lp_mmshare_version>
55123

> <i_f3d_flags>
0

> <s_epik_input>
W0NIM11bQ0BIXTFbQ0gyXU9DKD1PKU4xYzJub2MoYzNGKWMyW2NIXWMoW0NIMl00KWMzTihbQ0gyXVtDSDJdTihbQ0gyXTUpQyg9TylbQ0gzXSlbQ0BASF01QzQ2Qyg9TylbTkhdQyg9TylbTkhdQzY9Tw==

> <s_epik_cmdline>
J2VwaWtfcHl0aG9uJywgJy1waHQnLCAnMC41JywgJy1waCcsICc3LjUnLCAnLXRuJywgJzgnLCAnLW1hJywgJzUwMCcsICctaW1hZScsICc8aW5maWxlLm1hZT4nLCAnLW9tYWUnLCAnPG91dGZpbGUubWFlPic=

> <r_lp_tautomer_probability>
1

> <r_epik_Ionization_Penalty>
0.452521

> <r_epik_Ionization_Penalty_Charging>
0.452507

> <r_epik_Ionization_Penalty_Neutral>
1.47958e-05

> <r_epik_State_Penalty>
0.455411

> <r_epik_Charging_Adjusted_Penalty>
0.907918

> <i_epik_Tot_Q>
-1

> <i_epik_Tot_abs_Q>
1

> <s_epik_Chemistry_Notes>
This compound has an ester and may undergo hydrolysis at high or low pH.

> <s_lp_Force_Field>
S-OPLS

> <r_lp_Energy>
54.4955

> <b_lp_Chiralities_Consistent>
1

> <s_lp_Variant>
ligprep_h3d.sdf:449-2

> <ROCS_ShapeQuery>
_7L13

> <ROCS_TanimotoCombo>
0.713 

> <ROCS_ShapeTanimoto>
0.622 

> <ROCS_ColorTanimoto>
0.091 

> <ROCS_RefTversky>
0.781 

> <ROCS_RefColorTversky>
0.215 

> <ROCS_RefTverskyCombo>
0.996 

> <ROCS_FitTversky>
0.754 

> <ROCS_FitColorTversky>
0.136 

> <ROCS_FitTverskyCombo>
0.890 

> <ROCS_ColorScore>
-2.000

> <ROCS_Overlap>
1299.964

> <ROCS_Rank>
343                 

$$$$
ligprep_h3d.sdf:1247_1563
  -OEChem-08212117123D

 67 71  0     0  0  0  0  0  0999 V2000
  -20.4052   -3.9023  -32.1433 C   0  0  0  0  0  0  0  0  0  0  0  0
  -20.7075   -6.2894  -31.9249 C   0  0  0  0  0  0  0  0  0  0  0  0
  -19.8538   -4.0881  -33.4110 C   0  0  0  0  0  0  0  0  0  0  0  0
  -20.1561   -6.4752  -33.1926 C   0  0  0  0  0  0  0  0  0  0  0  0
  -17.0014   -5.6591  -26.4234 C   0  0  0  0  0  0  0  0  0  0  0  0
  -23.3368   -4.4360  -28.6897 C   0  0  0  0  0  0  0  0  0  0  0  0
  -20.9664   -4.4193  -25.2763 C   0  0  0  0  0  0  0  0  0  0  0  0
  -16.9704   -4.2575  -26.5513 C   0  0  0  0  0  0  0  0  0  0  0  0
  -21.1645   -4.6170  -27.6777 C   0  0  0  0  0  0  0  0  0  0  0  0
  -20.8321   -5.0029  -31.4002 C   0  0  0  0  0  0  0  0  0  0  0  0
  -21.4039   -4.8101  -30.0853 C   0  0  0  0  0  0  0  0  0  0  0  0
  -19.7292   -5.3745  -33.9356 C   0  0  0  0  0  0  0  0  0  0  0  0
  -22.7746   -4.6246  -29.9547 C   0  0  0  0  0  0  0  0  0  0  0  0
  -20.5988   -4.8066  -28.9499 C   0  0  0  0  0  0  0  0  0  0  0  0
  -22.5554   -4.4281  -27.5375 C   0  0  0  0  0  0  0  0  0  0  0  0
  -20.3775   -4.6089  -26.5182 C   0  0  0  0  0  0  0  0  0  0  0  0
  -22.3347   -4.2429  -25.2392 C   0  0  0  0  0  0  0  0  0  0  0  0
  -18.3386   -5.9717  -26.3944 C   0  0  0  0  0  0  0  0  0  0  0  0
  -25.2193   -4.3651  -22.6068 C   0  0  0  0  0  0  0  0  0  0  0  0
  -20.7528   -7.0123  -36.3664 C   0  0  0  0  0  0  0  0  0  0  0  0
  -18.4081   -7.2778  -36.8462 C   0  0  0  0  0  0  0  0  0  0  0  0
  -20.9940   -8.4175  -36.9101 C   0  0  0  0  0  0  0  0  0  0  0  0
  -18.7047   -8.6764  -37.3797 C   0  0  0  0  0  0  0  0  0  0  0  0
  -23.6855   -4.6163  -31.1411 C   0  0  0  0  0  0  0  0  0  0  0  0
  -19.1264   -5.0141  -29.1692 C   0  0  0  0  0  0  0  0  0  0  0  0
  -19.0167   -7.2774  -26.2752 C   0  0  0  0  0  0  0  0  0  0  0  0
  -19.1354   -5.5746  -35.3000 C   0  0  0  0  0  0  0  0  0  0  0  0
  -23.0128   -4.0385  -23.9256 C   0  0  0  0  0  0  0  0  0  0  0  0
  -24.4467   -4.5735  -23.9135 C   0  0  0  0  0  0  0  0  0  0  0  0
  -18.1908   -3.7171  -26.6003 N   0  0  0  0  0  0  0  0  0  0  0  0
  -23.1297   -4.2438  -26.3336 N   0  0  0  0  0  0  0  0  0  0  0  0
  -19.0013   -4.7846  -26.5028 N   0  0  0  0  0  0  0  0  0  0  0  0
  -19.3932   -6.9170  -35.8172 N   0  0  0  0  0  0  0  0  0  0  0  0
  -26.4171   -4.7708  -22.6465 O   0  5  0  0  0  0  0  0  0  0  0  0
  -24.5899   -3.8254  -21.6564 O   0  0  0  0  0  0  0  0  0  0  0  0
  -20.0282   -8.7351  -37.9130 O   0  0  0  0  0  0  0  0  0  0  0  0
  -20.4950   -2.8933  -31.7479 H   0  0  0  0  0  0  0  0  0  0  0  0
  -21.0362   -7.1573  -31.3581 H   0  0  0  0  0  0  0  0  0  0  0  0
  -19.5228   -3.2250  -33.9824 H   0  0  0  0  0  0  0  0  0  0  0  0
  -20.0633   -7.4810  -33.5938 H   0  0  0  0  0  0  0  0  0  0  0  0
  -16.1693   -6.3451  -26.3615 H   0  0  0  0  0  0  0  0  0  0  0  0
  -24.4130   -4.2917  -28.6025 H   0  0  0  0  0  0  0  0  0  0  0  0
  -20.3806   -4.4101  -24.3618 H   0  0  0  0  0  0  0  0  0  0  0  0
  -16.1092   -3.6076  -26.6110 H   0  0  0  0  0  0  0  0  0  0  0  0
  -20.8864   -6.2883  -37.1782 H   0  0  0  0  0  0  0  0  0  0  0  0
  -21.4937   -6.7909  -35.5872 H   0  0  0  0  0  0  0  0  0  0  0  0
  -17.3938   -7.2548  -36.4265 H   0  0  0  0  0  0  0  0  0  0  0  0
  -18.4482   -6.5647  -37.6777 H   0  0  0  0  0  0  0  0  0  0  0  0
  -20.8909   -9.1509  -36.1039 H   0  0  0  0  0  0  0  0  0  0  0  0
  -22.0029   -8.5218  -37.3271 H   0  0  0  0  0  0  0  0  0  0  0  0
  -17.9856   -8.9770  -38.1517 H   0  0  0  0  0  0  0  0  0  0  0  0
  -18.6413   -9.4068  -36.5668 H   0  0  0  0  0  0  0  0  0  0  0  0
  -23.7847   -3.5986  -31.5339 H   0  0  0  0  0  0  0  0  0  0  0  0
  -23.3014   -5.2645  -31.9373 H   0  0  0  0  0  0  0  0  0  0  0  0
  -24.6815   -4.9894  -30.8757 H   0  0  0  0  0  0  0  0  0  0  0  0
  -18.8928   -6.0810  -29.1293 H   0  0  0  0  0  0  0  0  0  0  0  0
  -18.8204   -4.6174  -30.1413 H   0  0  0  0  0  0  0  0  0  0  0  0
  -18.5441   -4.4919  -28.4048 H   0  0  0  0  0  0  0  0  0  0  0  0
  -19.1987   -7.5355  -25.2191 H   0  0  0  0  0  0  0  0  0  0  0  0
  -19.9898   -7.2873  -26.7952 H   0  0  0  0  0  0  0  0  0  0  0  0
  -18.4240   -8.0937  -26.7225 H   0  0  0  0  0  0  0  0  0  0  0  0
  -19.5514   -4.8533  -36.0117 H   0  0  0  0  0  0  0  0  0  0  0  0
  -18.0507   -5.4253  -35.2822 H   0  0  0  0  0  0  0  0  0  0  0  0
  -22.4354   -4.5248  -23.1246 H   0  0  0  0  0  0  0  0  0  0  0  0
  -23.0207   -2.9683  -23.6687 H   0  0  0  0  0  0  0  0  0  0  0  0
  -24.4380   -5.6510  -24.1234 H   0  0  0  0  0  0  0  0  0  0  0  0
  -25.0229   -4.0982  -24.7179 H   0  0  0  0  0  0  0  0  0  0  0  0
  1  3  1  0  0  0  0
  1 10  2  0  0  0  0
  2  4  2  0  0  0  0
  2 10  1  0  0  0  0
  3 12  2  0  0  0  0
  4 12  1  0  0  0  0
  5  8  1  0  0  0  0
  5 18  2  0  0  0  0
  6 13  2  0  0  0  0
  6 15  1  0  0  0  0
  7 16  1  0  0  0  0
  7 17  2  0  0  0  0
  8 30  2  0  0  0  0
  9 14  1  0  0  0  0
  9 15  1  0  0  0  0
  9 16  2  0  0  0  0
 10 11  1  0  0  0  0
 11 13  1  0  0  0  0
 11 14  2  0  0  0  0
 12 27  1  0  0  0  0
 13 24  1  0  0  0  0
 14 25  1  0  0  0  0
 15 31  2  0  0  0  0
 16 32  1  0  0  0  0
 17 28  1  0  0  0  0
 17 31  1  0  0  0  0
 18 26  1  0  0  0  0
 18 32  1  0  0  0  0
 19 29  1  0  0  0  0
 19 34  1  0  0  0  0
 19 35  2  0  0  0  0
 20 22  1  0  0  0  0
 20 33  1  0  0  0  0
 21 23  1  0  0  0  0
 21 33  1  0  0  0  0
 22 36  1  0  0  0  0
 23 36  1  0  0  0  0
 27 33  1  0  0  0  0
 28 29  1  0  0  0  0
 30 32  1  0  0  0  0
  1 37  1  0  0  0  0
  2 38  1  0  0  0  0
  3 39  1  0  0  0  0
  4 40  1  0  0  0  0
  5 41  1  0  0  0  0
  6 42  1  0  0  0  0
  7 43  1  0  0  0  0
  8 44  1  0  0  0  0
 20 45  1  0  0  0  0
 20 46  1  0  0  0  0
 21 47  1  0  0  0  0
 21 48  1  0  0  0  0
 22 49  1  0  0  0  0
 22 50  1  0  0  0  0
 23 51  1  0  0  0  0
 23 52  1  0  0  0  0
 24 53  1  0  0  0  0
 24 54  1  0  0  0  0
 24 55  1  0  0  0  0
 25 56  1  0  0  0  0
 25 57  1  0  0  0  0
 25 58  1  0  0  0  0
 26 59  1  0  0  0  0
 26 60  1  0  0  0  0
 26 61  1  0  0  0  0
 27 62  1  0  0  0  0
 27 63  1  0  0  0  0
 28 64  1  0  0  0  0
 28 65  1  0  0  0  0
 29 66  1  0  0  0  0
 29 67  1  0  0  0  0
M  CHG  1  34  -1
M  END
> <SMILES>
Cc1cc2nc(cc(c2c(c1-c1ccc(cc1)CN1CCOCC1)C)-n1nccc1C)CCC(=O)O

> <FORMATTED_ID>
H3D-008495

> <MOLFORMULA>
C29H32N4O3

> <Exact Mass>
484.25

> <XLogP>
4.25

> <TPSA_NOPS>
80.5

> <s_m_source_file>
ligprep_h3d.sdf

> <i_m_source_file_index>
1247

> <i_lp_mmshare_version>
55123

> <i_f3d_flags>
0

> <s_epik_input>
W0NIM11jMVtjSF1bY0hdbm4xLWMoW2NIXWMobjIpW0NIMl1bQ0gyXUMoPU8pW09IXSljKGMyMyljKFtDSDNdKWMoYyhbQ0gzXSlbY0hdMyktYzRbY0hdW2NIXWMoW2NIXVtjSF00KVtDSDJdTjVbQ0gyXVtDSDJdT1tDSDJdW0NIMl01

> <s_epik_cmdline>
J2VwaWtfcHl0aG9uJywgJy1waHQnLCAnMC41JywgJy1waCcsICc3LjUnLCAnLXRuJywgJzgnLCAnLW1hJywgJzUwMCcsICctaW1hZScsICc8aW5maWxlLm1hZT4nLCAnLW9tYWUnLCAnPG91dGZpbGUubWFlPic=

> <r_lp_tautomer_probability>
1

> <r_epik_Ionization_Penalty>
0.106394

> <r_epik_Ionization_Penalty_Charging>
0.000368633

> <r_epik_Ionization_Penalty_Neutral>
0.106025

> <r_epik_State_Penalty>
0.095414

> <r_epik_Charging_Adjusted_Penalty>
0.0957827

> <i_epik_Tot_Q>
-1

> <i_epik_Tot_abs_Q>
1

> <s_lp_Force_Field>
S-OPLS

> <r_lp_Energy>
64.0154

> <b_lp_Chiralities_Consistent>
1

> <s_lp_Variant>
ligprep_h3d.sdf:1247-1

> <ROCS_ShapeQuery>
_7L13

> <ROCS_TanimotoCombo>
0.717 

> <ROCS_ShapeTanimoto>
0.640 

> <ROCS_ColorTanimoto>
0.077 

> <ROCS_RefTversky>
0.781 

> <ROCS_RefColorTversky>
0.164 

> <ROCS_RefTverskyCombo>
0.946 

> <ROCS_FitTversky>
0.779 

> <ROCS_FitColorTversky>
0.127 

> <ROCS_FitTverskyCombo>
0.906 

> <ROCS_ColorScore>
-1.505

> <ROCS_Overlap>
1297.342

> <ROCS_Rank>
344                 

$$$$
ligprep_h3d.sdf:5032_1377
  -OEChem-08212117123D

 55 59  0     0  0  0  0  0  0999 V2000
  -23.5478   -2.6496  -31.0485 C   0  0  0  0  0  0  0  0  0  0  0  0
  -22.8638   -2.8541  -29.8502 C   0  0  0  0  0  0  0  0  0  0  0  0
  -23.3392   -4.2203  -23.0194 C   0  0  0  0  0  0  0  0  0  0  0  0
  -23.4238   -3.5710  -32.0884 C   0  0  0  0  0  0  0  0  0  0  0  0
  -24.6303   -4.2196  -22.4915 C   0  0  0  0  0  0  0  0  0  0  0  0
  -21.9315   -4.9012  -30.7317 C   0  0  0  0  0  0  0  0  0  0  0  0
  -24.1906   -5.1047  -25.1003 C   0  0  0  0  0  0  0  0  0  0  0  0
  -19.9624   -4.2754  -28.4189 C   0  0  0  0  0  0  0  0  0  0  0  0
  -22.0556   -3.9798  -29.6918 C   0  0  0  0  0  0  0  0  0  0  0  0
  -23.1194   -4.6628  -24.3238 C   0  0  0  0  0  0  0  0  0  0  0  0
  -22.6155   -4.6968  -31.9300 C   0  0  0  0  0  0  0  0  0  0  0  0
  -21.4213   -4.4976  -26.2144 C   0  0  0  0  0  0  0  0  0  0  0  0
  -25.7015   -4.6615  -23.2679 C   0  0  0  0  0  0  0  0  0  0  0  0
  -25.4817   -5.1040  -24.5723 C   0  0  0  0  0  0  0  0  0  0  0  0
  -21.3458   -4.1921  -28.4490 C   0  0  0  0  0  0  0  0  0  0  0  0
  -21.7868   -4.6632  -24.8689 C   0  0  0  0  0  0  0  0  0  0  0  0
  -20.0405   -4.5766  -26.2145 C   0  0  0  0  0  0  0  0  0  0  0  0
  -22.4841   -5.6652  -33.0256 C   0  0  0  0  0  0  0  0  0  0  0  0
  -20.3586   -7.0520  -35.5463 C   0  0  0  0  0  0  0  0  0  0  0  0
  -19.5557   -4.7366  -34.9577 C   0  0  0  0  0  0  0  0  0  0  0  0
  -20.8900   -7.2032  -34.1243 C   0  0  0  0  0  0  0  0  0  0  0  0
  -20.0970   -4.9364  -33.5460 C   0  0  0  0  0  0  0  0  0  0  0  0
  -19.1828   -6.0750  -35.5999 C   0  0  0  0  0  0  0  0  0  0  0  0
  -27.1126   -4.1938  -21.4116 C   0  0  0  0  0  0  0  0  0  0  0  0
  -19.2436   -4.4729  -27.2915 N   0  0  0  0  0  0  0  0  0  0  0  0
  -22.1284   -4.2994  -27.3525 N   0  0  0  0  0  0  0  0  0  0  0  0
  -20.7262   -4.8346  -24.0704 N   0  0  0  0  0  0  0  0  0  0  0  0
  -19.6787   -4.7771  -24.9170 N   0  0  0  0  0  0  0  0  0  0  0  0
  -21.2113   -5.8944  -33.5531 N   0  0  0  0  0  0  0  0  0  0  0  0
  -23.5246   -6.2002  -33.4051 O   0  0  0  0  0  0  0  0  0  0  0  0
  -18.8171   -5.8720  -36.9595 O   0  0  0  0  0  0  0  0  0  0  0  0
  -26.9609   -4.6594  -22.7517 O   0  0  0  0  0  0  0  0  0  0  0  0
  -26.5070   -5.5293  -25.3232 F   0  0  0  0  0  0  0  0  0  0  0  0
  -24.1771   -1.7729  -31.1719 H   0  0  0  0  0  0  0  0  0  0  0  0
  -22.9708   -2.1267  -29.0489 H   0  0  0  0  0  0  0  0  0  0  0  0
  -22.5148   -3.8724  -22.4014 H   0  0  0  0  0  0  0  0  0  0  0  0
  -23.9611   -3.4010  -33.0178 H   0  0  0  0  0  0  0  0  0  0  0  0
  -24.7953   -3.8732  -21.4748 H   0  0  0  0  0  0  0  0  0  0  0  0
  -21.3012   -5.7803  -30.6116 H   0  0  0  0  0  0  0  0  0  0  0  0
  -24.0361   -5.4526  -26.1189 H   0  0  0  0  0  0  0  0  0  0  0  0
  -19.3676   -4.1853  -29.3231 H   0  0  0  0  0  0  0  0  0  0  0  0
  -20.0455   -8.0276  -35.9371 H   0  0  0  0  0  0  0  0  0  0  0  0
  -21.1605   -6.7084  -36.2128 H   0  0  0  0  0  0  0  0  0  0  0  0
  -20.2988   -4.2179  -35.5772 H   0  0  0  0  0  0  0  0  0  0  0  0
  -18.6769   -4.0814  -34.9339 H   0  0  0  0  0  0  0  0  0  0  0  0
  -21.7711   -7.8528  -34.1231 H   0  0  0  0  0  0  0  0  0  0  0  0
  -20.1363   -7.6683  -33.4780 H   0  0  0  0  0  0  0  0  0  0  0  0
  -19.3187   -5.3466  -32.8914 H   0  0  0  0  0  0  0  0  0  0  0  0
  -20.3968   -3.9717  -33.1293 H   0  0  0  0  0  0  0  0  0  0  0  0
  -18.3210   -6.5117  -35.0809 H   0  0  0  0  0  0  0  0  0  0  0  0
  -28.1657   -4.2448  -21.1244 H   0  0  0  0  0  0  0  0  0  0  0  0
  -26.7538   -3.1640  -21.3399 H   0  0  0  0  0  0  0  0  0  0  0  0
  -26.5246   -4.8297  -20.7456 H   0  0  0  0  0  0  0  0  0  0  0  0
  -18.7465   -4.8833  -24.5367 H   0  0  0  0  0  0  0  0  0  0  0  0
  -18.0719   -5.2502  -36.9579 H   0  0  0  0  0  0  0  0  0  0  0  0
  1  2  1  0  0  0  0
  1  4  2  0  0  0  0
  2  9  2  0  0  0  0
  3  5  1  0  0  0  0
  3 10  2  0  0  0  0
  4 11  1  0  0  0  0
  5 13  2  0  0  0  0
  6  9  1  0  0  0  0
  6 11  2  0  0  0  0
  7 10  1  0  0  0  0
  7 14  2  0  0  0  0
  8 15  1  0  0  0  0
  8 25  2  0  0  0  0
  9 15  1  0  0  0  0
 10 16  1  0  0  0  0
 11 18  1  0  0  0  0
 12 16  1  0  0  0  0
 12 17  2  0  0  0  0
 12 26  1  0  0  0  0
 13 14  1  0  0  0  0
 13 32  1  0  0  0  0
 14 33  1  0  0  0  0
 15 26  2  0  0  0  0
 16 27  2  0  0  0  0
 17 25  1  0  0  0  0
 17 28  1  0  0  0  0
 18 29  1  0  0  0  0
 18 30  2  0  0  0  0
 19 21  1  0  0  0  0
 19 23  1  0  0  0  0
 20 22  1  0  0  0  0
 20 23  1  0  0  0  0
 21 29  1  0  0  0  0
 22 29  1  0  0  0  0
 23 31  1  0  0  0  0
 24 32  1  0  0  0  0
 27 28  1  0  0  0  0
  1 34  1  0  0  0  0
  2 35  1  0  0  0  0
  3 36  1  0  0  0  0
  4 37  1  0  0  0  0
  5 38  1  0  0  0  0
  6 39  1  0  0  0  0
  7 40  1  0  0  0  0
  8 41  1  0  0  0  0
 19 42  1  0  0  0  0
 19 43  1  0  0  0  0
 20 44  1  0  0  0  0
 20 45  1  0  0  0  0
 21 46  1  0  0  0  0
 21 47  1  0  0  0  0
 22 48  1  0  0  0  0
 22 49  1  0  0  0  0
 23 50  1  0  0  0  0
 24 51  1  0  0  0  0
 24 52  1  0  0  0  0
 24 53  1  0  0  0  0
 28 54  1  0  0  0  0
 31 55  1  0  0  0  0
M  END
> <SMILES>
COc1ccc(cc1F)-c1n[nH]c2ncc(nc12)-c1cccc(c1)C(=O)N1CCC(O)CC1

> <FORMATTED_ID>
H3D-009260

> <MOLFORMULA>
C24H22FN5O3

> <Exact Mass>
447.17

> <XLogP>
3.71

> <TPSA_NOPS>
104.2

> <s_m_source_file>
ligprep_h3d.sdf

> <i_m_source_file_index>
5032

> <i_lp_mmshare_version>
55123

> <i_f3d_flags>
0

> <s_epik_input>
W0NIM11PYzFbY0hdW2NIXWMoW2NIXWMxRiktYyhuW25IXTIpYyhjMjMpbmMoW2NIXW4zKS1jNFtjSF1bY0hdW2NIXWMoW2NIXTQpQyg9TylONVtDSDJdW0NIMl1bQ0hdKFtPSF0pW0NIMl1bQ0gyXTU=

> <s_epik_cmdline>
J2VwaWtfcHl0aG9uJywgJy1waHQnLCAnMC41JywgJy1waCcsICc3LjUnLCAnLXRuJywgJzgnLCAnLW1hJywgJzUwMCcsICctaW1hZScsICc8aW5maWxlLm1hZT4nLCAnLW9tYWUnLCAnPG91dGZpbGUubWFlPic=

> <r_lp_tautomer_probability>
1

> <r_epik_Ionization_Penalty>
4.28699e-05

> <r_epik_Ionization_Penalty_Charging>
0

> <r_epik_Ionization_Penalty_Neutral>
4.28699e-05

> <r_epik_State_Penalty>
-0

> <r_epik_Charging_Adjusted_Penalty>
0

> <i_epik_Tot_Q>
0

> <i_epik_Tot_abs_Q>
0

> <s_lp_Force_Field>
S-OPLS

> <r_lp_Energy>
49.5311

> <b_lp_Chiralities_Consistent>
1

> <s_lp_Variant>
ligprep_h3d.sdf:5032-1

> <ROCS_ShapeQuery>
_7L13

> <ROCS_TanimotoCombo>
0.847 

> <ROCS_ShapeTanimoto>
0.676 

> <ROCS_ColorTanimoto>
0.171 

> <ROCS_RefTversky>
0.781 

> <ROCS_RefColorTversky>
0.350 

> <ROCS_RefTverskyCombo>
1.131 

> <ROCS_FitTversky>
0.833 

> <ROCS_FitColorTversky>
0.251 

> <ROCS_FitTverskyCombo>
1.085 

> <ROCS_ColorScore>
-3.224

> <ROCS_Overlap>
1292.615

> <ROCS_Rank>
345                 

$$$$
ligprep_h3d.sdf:5157_695
  -OEChem-08212117123D

 75 81  0     0  0  0  0  0  0999 V2000
  -19.3450   -6.0736  -34.7550 C   0  0  0  0  0  0  0  0  0  0  0  0
  -20.1590   -4.9508  -34.9039 C   0  0  0  0  0  0  0  0  0  0  0  0
  -19.4196   -6.8399  -33.5918 C   0  0  0  0  0  0  0  0  0  0  0  0
  -21.0475   -4.5940  -33.8895 C   0  0  0  0  0  0  0  0  0  0  0  0
  -20.3081   -6.4832  -32.5775 C   0  0  0  0  0  0  0  0  0  0  0  0
  -23.5393   -3.9215  -27.7349 C   0  0  0  0  0  0  0  0  0  0  0  0
  -20.8636   -4.4692  -28.4470 C   0  0  0  0  0  0  0  0  0  0  0  0
  -14.7422   -4.8975  -26.4206 C   0  0  0  0  0  0  0  0  0  0  0  0
  -27.6260   -4.3125  -21.5867 C   0  0  0  0  0  0  0  0  0  0  0  0
  -15.2122   -6.0668  -25.8706 C   0  0  0  0  0  0  0  0  0  0  0  0
  -26.6549   -6.1362  -20.8344 C   0  0  0  0  0  0  0  0  0  0  0  0
  -22.6002   -4.2456  -26.7634 C   0  0  0  0  0  0  0  0  0  0  0  0
  -21.1221   -5.3602  -32.7263 C   0  0  0  0  0  0  0  0  0  0  0  0
  -26.3678   -4.8804  -21.3108 C   0  0  0  0  0  0  0  0  0  0  0  0
  -21.2786   -4.5151  -27.1240 C   0  0  0  0  0  0  0  0  0  0  0  0
  -23.1357   -3.8716  -29.0706 C   0  0  0  0  0  0  0  0  0  0  0  0
  -21.8067   -4.1436  -29.4237 C   0  0  0  0  0  0  0  0  0  0  0  0
  -16.8660   -4.6679  -26.3483 C   0  0  0  0  0  0  0  0  0  0  0  0
  -18.2396   -4.2897  -26.4026 C   0  0  0  0  0  0  0  0  0  0  0  0
  -18.8352   -6.4359  -25.4133 C   0  0  0  0  0  0  0  0  0  0  0  0
  -17.5441   -6.8000  -25.3591 C   0  0  0  0  0  0  0  0  0  0  0  0
  -19.2077   -5.1254  -25.9577 C   0  0  0  0  0  0  0  0  0  0  0  0
  -23.8236   -5.4654  -24.9253 C   0  0  0  0  0  0  0  0  0  0  0  0
  -23.2575   -3.0174  -24.6600 C   0  0  0  0  0  0  0  0  0  0  0  0
  -21.3711   -4.7430  -24.7947 C   0  0  0  0  0  0  0  0  0  0  0  0
  -24.1233   -5.5485  -23.4328 C   0  0  0  0  0  0  0  0  0  0  0  0
  -23.5610   -3.1181  -23.1695 C   0  0  0  0  0  0  0  0  0  0  0  0
  -22.8060   -4.3600  -25.2661 C   0  0  0  0  0  0  0  0  0  0  0  0
  -28.7916   -7.3848  -20.4420 C   0  0  0  0  0  0  0  0  0  0  0  0
  -24.1968   -2.1722  -30.3520 C   0  0  0  0  0  0  0  0  0  0  0  0
  -25.0157   -4.2573  -21.4970 C   0  0  0  0  0  0  0  0  0  0  0  0
  -22.0775   -4.9770  -31.6346 C   0  0  0  0  0  0  0  0  0  0  0  0
  -15.7690   -4.0365  -26.7140 N   0  0  0  0  0  0  0  0  0  0  0  0
  -28.6372   -5.1397  -21.3089 N   0  0  0  0  0  0  0  0  0  0  0  0
  -16.5747   -5.9207  -25.8235 N   0  0  0  0  0  0  0  0  0  0  0  0
  -28.0146   -6.2402  -20.8535 N   0  0  0  0  0  0  0  0  0  0  0  0
  -20.5203   -4.8151  -25.9875 N   0  0  0  0  0  0  0  0  0  0  0  0
  -24.5863   -4.2005  -22.9375 N   0  3  0  0  0  0  0  0  0  0  0  0
  -24.0502   -3.5534  -30.0304 O   0  0  0  0  0  0  0  0  0  0  0  0
  -21.4204   -4.0920  -30.7306 O   0  0  0  0  0  0  0  0  0  0  0  0
  -18.6541   -6.3520  -35.5455 H   0  0  0  0  0  0  0  0  0  0  0  0
  -20.1018   -4.3546  -35.8100 H   0  0  0  0  0  0  0  0  0  0  0  0
  -18.7867   -7.7148  -33.4760 H   0  0  0  0  0  0  0  0  0  0  0  0
  -21.6778   -3.7174  -34.0141 H   0  0  0  0  0  0  0  0  0  0  0  0
  -20.3593   -7.0860  -31.6746 H   0  0  0  0  0  0  0  0  0  0  0  0
  -24.5691   -3.7104  -27.4637 H   0  0  0  0  0  0  0  0  0  0  0  0
  -19.8384   -4.6767  -28.7337 H   0  0  0  0  0  0  0  0  0  0  0  0
  -13.7142   -4.6326  -26.6202 H   0  0  0  0  0  0  0  0  0  0  0  0
  -27.8507   -3.3309  -21.9794 H   0  0  0  0  0  0  0  0  0  0  0  0
  -14.7129   -6.9600  -25.5211 H   0  0  0  0  0  0  0  0  0  0  0  0
  -26.0231   -6.9451  -20.4932 H   0  0  0  0  0  0  0  0  0  0  0  0
  -18.4884   -3.3143  -26.8093 H   0  0  0  0  0  0  0  0  0  0  0  0
  -19.6129   -7.1033  -25.0577 H   0  0  0  0  0  0  0  0  0  0  0  0
  -17.2194   -7.7561  -24.9668 H   0  0  0  0  0  0  0  0  0  0  0  0
  -23.4636   -6.4415  -25.2758 H   0  0  0  0  0  0  0  0  0  0  0  0
  -24.7670   -5.2864  -25.4587 H   0  0  0  0  0  0  0  0  0  0  0  0
  -24.1588   -2.6562  -25.1736 H   0  0  0  0  0  0  0  0  0  0  0  0
  -22.4933   -2.2459  -24.8212 H   0  0  0  0  0  0  0  0  0  0  0  0
  -20.9591   -4.0005  -24.1005 H   0  0  0  0  0  0  0  0  0  0  0  0
  -21.3567   -5.7117  -24.2805 H   0  0  0  0  0  0  0  0  0  0  0  0
  -24.9332   -6.2615  -23.2460 H   0  0  0  0  0  0  0  0  0  0  0  0
  -23.2458   -5.8365  -22.8448 H   0  0  0  0  0  0  0  0  0  0  0  0
  -22.6740   -3.3664  -22.5773 H   0  0  0  0  0  0  0  0  0  0  0  0
  -23.9884   -2.1788  -22.8034 H   0  0  0  0  0  0  0  0  0  0  0  0
  -29.0157   -7.2754  -19.3777 H   0  0  0  0  0  0  0  0  0  0  0  0
  -29.7159   -7.4260  -21.0250 H   0  0  0  0  0  0  0  0  0  0  0  0
  -28.2146   -8.2964  -20.6207 H   0  0  0  0  0  0  0  0  0  0  0  0
  -24.9557   -2.0569  -31.1298 H   0  0  0  0  0  0  0  0  0  0  0  0
  -23.2400   -1.7746  -30.6998 H   0  0  0  0  0  0  0  0  0  0  0  0
  -24.5106   -1.6301  -29.4568 H   0  0  0  0  0  0  0  0  0  0  0  0
  -24.9992   -3.2279  -21.1232 H   0  0  0  0  0  0  0  0  0  0  0  0
  -24.2438   -4.8196  -20.9606 H   0  0  0  0  0  0  0  0  0  0  0  0
  -22.9612   -4.4767  -32.0452 H   0  0  0  0  0  0  0  0  0  0  0  0
  -22.4165   -5.8631  -31.0872 H   0  0  0  0  0  0  0  0  0  0  0  0
  -25.4242   -3.9479  -23.4795 H   0  0  0  0  0  0  0  0  0  0  0  0
  1  2  2  0  0  0  0
  1  3  1  0  0  0  0
  2  4  1  0  0  0  0
  3  5  2  0  0  0  0
  4 13  2  0  0  0  0
  5 13  1  0  0  0  0
  6 12  1  0  0  0  0
  6 16  2  0  0  0  0
  7 15  1  0  0  0  0
  7 17  2  0  0  0  0
  8 10  2  0  0  0  0
  8 33  1  0  0  0  0
  9 14  1  0  0  0  0
  9 34  2  0  0  0  0
 10 35  1  0  0  0  0
 11 14  2  0  0  0  0
 11 36  1  0  0  0  0
 12 15  2  0  0  0  0
 12 28  1  0  0  0  0
 13 32  1  0  0  0  0
 14 31  1  0  0  0  0
 15 37  1  0  0  0  0
 16 17  1  0  0  0  0
 16 39  1  0  0  0  0
 17 40  1  0  0  0  0
 18 19  1  0  0  0  0
 18 33  2  0  0  0  0
 18 35  1  0  0  0  0
 19 22  2  0  0  0  0
 20 21  2  0  0  0  0
 20 22  1  0  0  0  0
 21 35  1  0  0  0  0
 22 37  1  0  0  0  0
 23 26  1  0  0  0  0
 23 28  1  0  0  0  0
 24 27  1  0  0  0  0
 24 28  1  0  0  0  0
 25 28  1  0  0  0  0
 25 37  1  0  0  0  0
 26 38  1  0  0  0  0
 27 38  1  0  0  0  0
 29 36  1  0  0  0  0
 30 39  1  0  0  0  0
 31 38  1  0  0  0  0
 32 40  1  0  0  0  0
 34 36  1  0  0  0  0
  1 41  1  0  0  0  0
  2 42  1  0  0  0  0
  3 43  1  0  0  0  0
  4 44  1  0  0  0  0
  5 45  1  0  0  0  0
  6 46  1  0  0  0  0
  7 47  1  0  0  0  0
  8 48  1  0  0  0  0
  9 49  1  0  0  0  0
 10 50  1  0  0  0  0
 11 51  1  0  0  0  0
 19 52  1  0  0  0  0
 20 53  1  0  0  0  0
 21 54  1  0  0  0  0
 23 55  1  0  0  0  0
 23 56  1  0  0  0  0
 24 57  1  0  0  0  0
 24 58  1  0  0  0  0
 25 59  1  0  0  0  0
 25 60  1  0  0  0  0
 26 61  1  0  0  0  0
 26 62  1  0  0  0  0
 27 63  1  0  0  0  0
 27 64  1  0  0  0  0
 29 65  1  0  0  0  0
 29 66  1  0  0  0  0
 29 67  1  0  0  0  0
 30 68  1  0  0  0  0
 30 69  1  0  0  0  0
 30 70  1  0  0  0  0
 31 71  1  0  0  0  0
 31 72  1  0  0  0  0
 32 73  1  0  0  0  0
 32 74  1  0  0  0  0
 38 75  1  0  0  0  0
M  CHG  1  38   1
M  END
> <SMILES>
COc1cc2c(cc1OCc1ccccc1)N(CC12CCN(CC1)Cc1cnn(c1)C)c1ccn2ccnc2c1

> <FORMATTED_ID>
H3D-013972

> <MOLFORMULA>
C32H34N6O2

> <Exact Mass>
534.27

> <XLogP>
6.46

> <TPSA_NOPS>
60.1

> <s_m_source_file>
ligprep_h3d.sdf

> <i_m_source_file_index>
5157

> <i_lp_mmshare_version>
55123

> <i_f3d_flags>
0

> <s_epik_input>
W2NIXTFbY0hdW2NIXVtjSF1bY0hdYzFbQ0gyXU9jKGMoW2NIXTIpT1tDSDNdKVtjSF1jKE4oW0NIMl0zKWMoW2NIXVtjSF00KVtjSF1jKG40NSluW2NIXVtjSF01KWMyQzM2W0NIMl1bQ0gyXU4oW0NIMl1bQ0gyXTYpW0NIMl1jN1tjSF1ubihbY0hdNylbQ0gzXQ==

> <s_epik_cmdline>
J2VwaWtfcHl0aG9uJywgJy1waHQnLCAnMC41JywgJy1waCcsICc3LjUnLCAnLXRuJywgJzgnLCAnLW1hJywgJzUwMCcsICctaW1hZScsICc8aW5maWxlLm1hZT4nLCAnLW9tYWUnLCAnPG91dGZpbGUubWFlPic=

> <r_lp_tautomer_probability>
1

> <r_epik_Ionization_Penalty>
0.522237

> <r_epik_Ionization_Penalty_Charging>
0.522212

> <r_epik_Ionization_Penalty_Neutral>
2.53424e-05

> <r_epik_State_Penalty>
0.541012

> <r_epik_Charging_Adjusted_Penalty>
1.06322

> <i_epik_Tot_Q>
1

> <i_epik_Tot_abs_Q>
1

> <s_lp_Force_Field>
S-OPLS

> <r_lp_Energy>
73.0145

> <b_lp_Chiralities_Consistent>
1

> <s_lp_Variant>
ligprep_h3d.sdf:5157-2

> <ROCS_ShapeQuery>
_7L13

> <ROCS_TanimotoCombo>
0.677 

> <ROCS_ShapeTanimoto>
0.585 

> <ROCS_ColorTanimoto>
0.091 

> <ROCS_RefTversky>
0.781 

> <ROCS_RefColorTversky>
0.200 

> <ROCS_RefTverskyCombo>
0.981 

> <ROCS_FitTversky>
0.700 

> <ROCS_FitColorTversky>
0.144 

> <ROCS_FitTverskyCombo>
0.844 

> <ROCS_ColorScore>
-1.844

> <ROCS_Overlap>
1305.424

> <ROCS_Rank>
346                 

$$$$
ligprep_h3d.sdf:5456_1143
  -OEChem-08212117123D

 61 66  0     0  0  0  0  0  0999 V2000
  -21.1363   -6.3365  -33.3675 C   0  0  0  0  0  0  0  0  0  0  0  0
  -20.1361   -4.1634  -33.0294 C   0  0  0  0  0  0  0  0  0  0  0  0
  -20.2109   -6.6056  -34.3759 C   0  0  0  0  0  0  0  0  0  0  0  0
  -19.2106   -4.4325  -34.0377 C   0  0  0  0  0  0  0  0  0  0  0  0
  -23.6761   -4.0164  -27.7017 C   0  0  0  0  0  0  0  0  0  0  0  0
  -20.9689   -4.4008  -28.3759 C   0  0  0  0  0  0  0  0  0  0  0  0
  -15.2306   -5.6564  -25.7224 C   0  0  0  0  0  0  0  0  0  0  0  0
  -22.7370   -4.3438  -26.7310 C   0  0  0  0  0  0  0  0  0  0  0  0
  -21.0989   -5.1154  -32.6943 C   0  0  0  0  0  0  0  0  0  0  0  0
  -21.3894   -4.5385  -27.0579 C   0  0  0  0  0  0  0  0  0  0  0  0
  -23.2541   -3.8877  -29.0243 C   0  0  0  0  0  0  0  0  0  0  0  0
  -21.9083   -4.0775  -29.3591 C   0  0  0  0  0  0  0  0  0  0  0  0
  -19.2480   -5.6536  -34.7110 C   0  0  0  0  0  0  0  0  0  0  0  0
  -16.9706   -4.4063  -26.1483 C   0  0  0  0  0  0  0  0  0  0  0  0
  -18.3633   -4.1283  -26.2274 C   0  0  0  0  0  0  0  0  0  0  0  0
  -18.8113   -6.3819  -25.4065 C   0  0  0  0  0  0  0  0  0  0  0  0
  -17.4963   -6.6458  -25.3308 C   0  0  0  0  0  0  0  0  0  0  0  0
  -19.2732   -5.0677  -25.8741 C   0  0  0  0  0  0  0  0  0  0  0  0
  -23.2091   -3.1130  -24.5974 C   0  0  0  0  0  0  0  0  0  0  0  0
  -24.0771   -5.4744  -24.8991 C   0  0  0  0  0  0  0  0  0  0  0  0
  -21.5468   -5.0606  -24.8152 C   0  0  0  0  0  0  0  0  0  0  0  0
  -23.5208   -3.2028  -23.1082 C   0  0  0  0  0  0  0  0  0  0  0  0
  -24.3435   -5.5504  -23.4023 C   0  0  0  0  0  0  0  0  0  0  0  0
  -22.9396   -4.4916  -25.2418 C   0  0  0  0  0  0  0  0  0  0  0  0
  -24.3810   -2.1999  -30.2642 C   0  0  0  0  0  0  0  0  0  0  0  0
  -22.0937   -4.8255  -31.6090 C   0  0  0  0  0  0  0  0  0  0  0  0
  -14.7934   -4.4932  -26.1507 N   0  0  0  0  0  0  0  0  0  0  0  0
  -15.8925   -3.7019  -26.4202 N   0  0  0  0  0  0  0  0  0  0  0  0
  -16.5956   -5.6600  -25.7005 N   0  0  0  0  0  0  0  0  0  0  0  0
  -20.6116   -4.8598  -25.9288 N   0  0  0  0  0  0  0  0  0  0  0  0
  -24.6278   -4.1782  -22.8888 N   0  3  0  0  0  0  0  0  0  0  0  0
  -24.1674   -3.5826  -29.9890 O   0  0  0  0  0  0  0  0  0  0  0  0
  -21.4984   -3.9508  -30.6537 O   0  0  0  0  0  0  0  0  0  0  0  0
  -18.3575   -5.9130  -35.6774 F   0  0  0  0  0  0  0  0  0  0  0  0
  -21.8833   -7.0841  -33.1140 H   0  0  0  0  0  0  0  0  0  0  0  0
  -20.0991   -3.2093  -32.5101 H   0  0  0  0  0  0  0  0  0  0  0  0
  -20.2394   -7.5564  -34.8996 H   0  0  0  0  0  0  0  0  0  0  0  0
  -18.4611   -3.6915  -34.2992 H   0  0  0  0  0  0  0  0  0  0  0  0
  -24.7199   -3.8736  -27.4410 H   0  0  0  0  0  0  0  0  0  0  0  0
  -19.9276   -4.5336  -28.6529 H   0  0  0  0  0  0  0  0  0  0  0  0
  -14.6251   -6.5011  -25.4254 H   0  0  0  0  0  0  0  0  0  0  0  0
  -18.6763   -3.1492  -26.5764 H   0  0  0  0  0  0  0  0  0  0  0  0
  -19.5432   -7.1312  -25.1248 H   0  0  0  0  0  0  0  0  0  0  0  0
  -17.1034   -7.5969  -24.9932 H   0  0  0  0  0  0  0  0  0  0  0  0
  -24.0568   -2.6220  -25.0994 H   0  0  0  0  0  0  0  0  0  0  0  0
  -22.3507   -2.4420  -24.7495 H   0  0  0  0  0  0  0  0  0  0  0  0
  -23.8493   -6.4776  -25.2750 H   0  0  0  0  0  0  0  0  0  0  0  0
  -25.0016   -5.1629  -25.3998 H   0  0  0  0  0  0  0  0  0  0  0  0
  -21.1574   -4.5248  -23.9392 H   0  0  0  0  0  0  0  0  0  0  0  0
  -21.5981   -6.1216  -24.5457 H   0  0  0  0  0  0  0  0  0  0  0  0
  -22.6612   -3.5422  -22.5181 H   0  0  0  0  0  0  0  0  0  0  0  0
  -23.8631   -2.2391  -22.7145 H   0  0  0  0  0  0  0  0  0  0  0  0
  -25.2244   -6.1590  -23.1858 H   0  0  0  0  0  0  0  0  0  0  0  0
  -23.4924   -5.9387  -22.8388 H   0  0  0  0  0  0  0  0  0  0  0  0
  -25.1315   -2.0960  -31.0515 H   0  0  0  0  0  0  0  0  0  0  0  0
  -23.4407   -1.7407  -30.5795 H   0  0  0  0  0  0  0  0  0  0  0  0
  -24.7380   -1.7078  -29.3564 H   0  0  0  0  0  0  0  0  0  0  0  0
  -22.9919   -4.3501  -32.0175 H   0  0  0  0  0  0  0  0  0  0  0  0
  -22.4007   -5.7497  -31.1075 H   0  0  0  0  0  0  0  0  0  0  0  0
  -24.8329   -4.2331  -21.8820 H   0  0  0  0  0  0  0  0  0  0  0  0
  -25.4895   -3.8222  -23.3264 H   0  0  0  0  0  0  0  0  0  0  0  0
  1  3  1  0  0  0  0
  1  9  2  0  0  0  0
  2  4  2  0  0  0  0
  2  9  1  0  0  0  0
  3 13  2  0  0  0  0
  4 13  1  0  0  0  0
  5  8  1  0  0  0  0
  5 11  2  0  0  0  0
  6 10  1  0  0  0  0
  6 12  2  0  0  0  0
  7 27  2  0  0  0  0
  7 29  1  0  0  0  0
  8 10  2  0  0  0  0
  8 24  1  0  0  0  0
  9 26  1  0  0  0  0
 10 30  1  0  0  0  0
 11 12  1  0  0  0  0
 11 32  1  0  0  0  0
 12 33  1  0  0  0  0
 13 34  1  0  0  0  0
 14 15  1  0  0  0  0
 14 28  2  0  0  0  0
 14 29  1  0  0  0  0
 15 18  2  0  0  0  0
 16 17  2  0  0  0  0
 16 18  1  0  0  0  0
 17 29  1  0  0  0  0
 18 30  1  0  0  0  0
 19 22  1  0  0  0  0
 19 24  1  0  0  0  0
 20 23  1  0  0  0  0
 20 24  1  0  0  0  0
 21 24  1  0  0  0  0
 21 30  1  0  0  0  0
 22 31  1  0  0  0  0
 23 31  1  0  0  0  0
 25 32  1  0  0  0  0
 26 33  1  0  0  0  0
 27 28  1  0  0  0  0
  1 35  1  0  0  0  0
  2 36  1  0  0  0  0
  3 37  1  0  0  0  0
  4 38  1  0  0  0  0
  5 39  1  0  0  0  0
  6 40  1  0  0  0  0
  7 41  1  0  0  0  0
 15 42  1  0  0  0  0
 16 43  1  0  0  0  0
 17 44  1  0  0  0  0
 19 45  1  0  0  0  0
 19 46  1  0  0  0  0
 20 47  1  0  0  0  0
 20 48  1  0  0  0  0
 21 49  1  0  0  0  0
 21 50  1  0  0  0  0
 22 51  1  0  0  0  0
 22 52  1  0  0  0  0
 23 53  1  0  0  0  0
 23 54  1  0  0  0  0
 25 55  1  0  0  0  0
 25 56  1  0  0  0  0
 25 57  1  0  0  0  0
 26 58  1  0  0  0  0
 26 59  1  0  0  0  0
 31 60  1  0  0  0  0
 31 61  1  0  0  0  0
M  CHG  1  31   1
M  END
> <SMILES>
COc1cc2c(cc1OCc1ccc(cc1)F)N(CC12CCNCC1)c1ccn2cnnc2c1

> <FORMATTED_ID>
H3D-016180

> <MOLFORMULA>
C26H26FN5O2

> <Exact Mass>
459.21

> <XLogP>
5.54

> <TPSA_NOPS>
63.9

> <s_m_source_file>
ligprep_h3d.sdf

> <i_m_source_file_index>
5456

> <i_lp_mmshare_version>
55123

> <i_f3d_flags>
0

> <s_epik_input>
W2NIXTFbY0hdYyhGKVtjSF1bY0hdYzFbQ0gyXU9jKGMoW2NIXTIpT1tDSDNdKVtjSF1jKGMyQzM0W0NIMl1bQ0gyXVtOSF1bQ0gyXVtDSDJdNClOKFtDSDJdMyljKFtjSF1bY0hdNSlbY0hdYyhuNTYpbm5bY0hdNg==

> <s_epik_cmdline>
J2VwaWtfcHl0aG9uJywgJy1waHQnLCAnMC41JywgJy1waCcsICc3LjUnLCAnLXRuJywgJzgnLCAnLW1hJywgJzUwMCcsICctaW1hZScsICc8aW5maWxlLm1hZT4nLCAnLW9tYWUnLCAnPG91dGZpbGUubWFlPic=

> <r_lp_tautomer_probability>
1

> <r_epik_Ionization_Penalty>
0.00226356

> <r_epik_Ionization_Penalty_Charging>
0.00220253

> <r_epik_Ionization_Penalty_Neutral>
6.10296e-05

> <r_epik_State_Penalty>
-0

> <r_epik_Charging_Adjusted_Penalty>
0.00220253

> <i_epik_Tot_Q>
1

> <i_epik_Tot_abs_Q>
1

> <s_lp_Force_Field>
S-OPLS

> <r_lp_Energy>
65.4274

> <b_lp_Chiralities_Consistent>
1

> <s_lp_Variant>
ligprep_h3d.sdf:5456-1

> <ROCS_ShapeQuery>
_7L13

> <ROCS_TanimotoCombo>
0.755 

> <ROCS_ShapeTanimoto>
0.660 

> <ROCS_ColorTanimoto>
0.095 

> <ROCS_RefTversky>
0.781 

> <ROCS_RefColorTversky>
0.202 

> <ROCS_RefTverskyCombo>
0.983 

> <ROCS_FitTversky>
0.809 

> <ROCS_FitColorTversky>
0.152 

> <ROCS_FitTverskyCombo>
0.962 

> <ROCS_ColorScore>
-1.855

> <ROCS_Overlap>
1294.104

> <ROCS_Rank>
347                 

$$$$
ligprep_h3d.sdf:1315_1098
  -OEChem-08212117123D

 62 66  0     0  0  0  0  0  0999 V2000
  -20.1240   -3.8679  -32.2440 C   0  0  0  0  0  0  0  0  0  0  0  0
  -19.5917   -4.0558  -33.5239 C   0  0  0  0  0  0  0  0  0  0  0  0
  -16.6859   -5.0895  -26.6688 C   0  0  0  0  0  0  0  0  0  0  0  0
  -20.7768   -6.2086  -32.0922 C   0  0  0  0  0  0  0  0  0  0  0  0
  -23.1065   -4.0787  -28.7977 C   0  0  0  0  0  0  0  0  0  0  0  0
  -20.7625   -4.5138  -25.3937 C   0  0  0  0  0  0  0  0  0  0  0  0
  -17.2034   -6.3959  -26.5833 C   0  0  0  0  0  0  0  0  0  0  0  0
  -19.5951   -7.2025  -35.2519 C   0  0  0  0  0  0  0  0  0  0  0  0
  -20.9850   -4.6062  -27.7993 C   0  0  0  0  0  0  0  0  0  0  0  0
  -20.7064   -4.9238  -31.5391 C   0  0  0  0  0  0  0  0  0  0  0  0
  -21.2475   -4.6878  -30.2109 C   0  0  0  0  0  0  0  0  0  0  0  0
  -22.5765   -4.3081  -30.0698 C   0  0  0  0  0  0  0  0  0  0  0  0
  -20.4517   -4.8370  -29.0788 C   0  0  0  0  0  0  0  0  0  0  0  0
  -20.2471   -6.4154  -33.3771 C   0  0  0  0  0  0  0  0  0  0  0  0
  -22.3335   -4.2206  -27.6485 C   0  0  0  0  0  0  0  0  0  0  0  0
  -19.6729   -5.3436  -34.0548 C   0  0  0  0  0  0  0  0  0  0  0  0
  -20.2064   -4.7490  -26.6429 C   0  0  0  0  0  0  0  0  0  0  0  0
  -22.0904   -4.1406  -25.3464 C   0  0  0  0  0  0  0  0  0  0  0  0
  -17.7963   -4.2818  -26.7029 C   0  0  0  0  0  0  0  0  0  0  0  0
  -22.7346   -3.8808  -24.0704 C   0  0  0  0  0  0  0  0  0  0  0  0
  -23.4751   -4.1321  -31.2526 C   0  0  0  0  0  0  0  0  0  0  0  0
  -19.0248   -5.2497  -29.3094 C   0  0  0  0  0  0  0  0  0  0  0  0
  -17.9125   -2.8129  -26.7896 C   0  0  0  0  0  0  0  0  0  0  0  0
  -28.2473   -6.3156  -23.0233 C   0  0  0  0  0  0  0  0  0  0  0  0
  -24.8936   -3.9122  -22.7943 C   0  0  0  0  0  0  0  0  0  0  0  0
  -26.3512   -4.2830  -22.9900 C   0  0  0  0  0  0  0  0  0  0  0  0
  -18.5387   -6.4213  -26.5641 N   0  0  0  0  0  0  0  0  0  0  0  0
  -20.1895   -7.5616  -34.1362 N   0  0  0  0  0  0  0  0  0  0  0  0
  -22.8759   -3.9916  -26.4376 N   0  0  0  0  0  0  0  0  0  0  0  0
  -19.2645   -5.8759  -35.2508 N   0  0  0  0  0  0  0  0  0  0  0  0
  -18.8696   -5.1209  -26.6379 N   0  0  0  0  0  0  0  0  0  0  0  0
  -24.1080   -4.1412  -23.9856 N   0  0  0  0  0  0  0  0  0  0  0  0
  -22.0819   -3.4271  -23.1128 O   0  0  0  0  0  0  0  0  0  0  0  0
  -26.4480   -6.0624  -24.9024 O   0  0  0  0  0  0  0  0  0  0  0  0
  -25.7115   -6.7871  -22.5993 O   0  0  0  0  0  0  0  0  0  0  0  0
  -26.5570   -5.9736  -23.4563 S   0  0  0  0  0  0  0  0  0  0  0  0
  -20.0744   -2.8735  -31.8037 H   0  0  0  0  0  0  0  0  0  0  0  0
  -19.1382   -3.2387  -34.0730 H   0  0  0  0  0  0  0  0  0  0  0  0
  -15.6518   -4.7790  -26.7007 H   0  0  0  0  0  0  0  0  0  0  0  0
  -21.2284   -7.0337  -31.5487 H   0  0  0  0  0  0  0  0  0  0  0  0
  -24.1502   -3.7815  -28.7020 H   0  0  0  0  0  0  0  0  0  0  0  0
  -20.1813   -4.6173  -24.4816 H   0  0  0  0  0  0  0  0  0  0  0  0
  -16.6630   -7.3303  -26.5341 H   0  0  0  0  0  0  0  0  0  0  0  0
  -19.3763   -7.8466  -36.0915 H   0  0  0  0  0  0  0  0  0  0  0  0
  -23.4253   -3.0994  -31.6142 H   0  0  0  0  0  0  0  0  0  0  0  0
  -23.1880   -4.8047  -32.0692 H   0  0  0  0  0  0  0  0  0  0  0  0
  -24.5151   -4.3649  -30.9954 H   0  0  0  0  0  0  0  0  0  0  0  0
  -18.9490   -6.3398  -29.3028 H   0  0  0  0  0  0  0  0  0  0  0  0
  -18.6635   -4.8721  -30.2700 H   0  0  0  0  0  0  0  0  0  0  0  0
  -18.3736   -4.8412  -28.5315 H   0  0  0  0  0  0  0  0  0  0  0  0
  -17.9571   -2.4792  -27.8393 H   0  0  0  0  0  0  0  0  0  0  0  0
  -18.8168   -2.4385  -26.2802 H   0  0  0  0  0  0  0  0  0  0  0  0
  -17.0596   -2.3015  -26.3113 H   0  0  0  0  0  0  0  0  0  0  0  0
  -28.4654   -7.3535  -23.2802 H   0  0  0  0  0  0  0  0  0  0  0  0
  -28.3677   -6.1537  -21.9511 H   0  0  0  0  0  0  0  0  0  0  0  0
  -28.8909   -5.6388  -23.5872 H   0  0  0  0  0  0  0  0  0  0  0  0
  -24.7803   -2.8584  -22.5214 H   0  0  0  0  0  0  0  0  0  0  0  0
  -24.4532   -4.5234  -22.0007 H   0  0  0  0  0  0  0  0  0  0  0  0
  -26.7906   -3.6878  -23.7961 H   0  0  0  0  0  0  0  0  0  0  0  0
  -26.9358   -4.1287  -22.0781 H   0  0  0  0  0  0  0  0  0  0  0  0
  -18.8010   -5.3766  -35.9982 H   0  0  0  0  0  0  0  0  0  0  0  0
  -24.6054   -4.4506  -24.8141 H   0  0  0  0  0  0  0  0  0  0  0  0
  1  2  1  0  0  0  0
  1 10  2  0  0  0  0
  2 16  2  0  0  0  0
  3  7  1  0  0  0  0
  3 19  2  0  0  0  0
  4 10  1  0  0  0  0
  4 14  2  0  0  0  0
  5 12  2  0  0  0  0
  5 15  1  0  0  0  0
  6 17  1  0  0  0  0
  6 18  2  0  0  0  0
  7 27  2  0  0  0  0
  8 28  2  0  0  0  0
  8 30  1  0  0  0  0
  9 13  1  0  0  0  0
  9 15  1  0  0  0  0
  9 17  2  0  0  0  0
 10 11  1  0  0  0  0
 11 12  1  0  0  0  0
 11 13  2  0  0  0  0
 12 21  1  0  0  0  0
 13 22  1  0  0  0  0
 14 16  1  0  0  0  0
 14 28  1  0  0  0  0
 15 29  2  0  0  0  0
 16 30  1  0  0  0  0
 17 31  1  0  0  0  0
 18 20  1  0  0  0  0
 18 29  1  0  0  0  0
 19 23  1  0  0  0  0
 19 31  1  0  0  0  0
 20 32  1  0  0  0  0
 20 33  2  0  0  0  0
 24 36  1  0  0  0  0
 25 26  1  0  0  0  0
 25 32  1  0  0  0  0
 26 36  1  0  0  0  0
 27 31  1  0  0  0  0
 34 36  2  0  0  0  0
 35 36  2  0  0  0  0
  1 37  1  0  0  0  0
  2 38  1  0  0  0  0
  3 39  1  0  0  0  0
  4 40  1  0  0  0  0
  5 41  1  0  0  0  0
  6 42  1  0  0  0  0
  7 43  1  0  0  0  0
  8 44  1  0  0  0  0
 21 45  1  0  0  0  0
 21 46  1  0  0  0  0
 21 47  1  0  0  0  0
 22 48  1  0  0  0  0
 22 49  1  0  0  0  0
 22 50  1  0  0  0  0
 23 51  1  0  0  0  0
 23 52  1  0  0  0  0
 23 53  1  0  0  0  0
 24 54  1  0  0  0  0
 24 55  1  0  0  0  0
 24 56  1  0  0  0  0
 25 57  1  0  0  0  0
 25 58  1  0  0  0  0
 26 59  1  0  0  0  0
 26 60  1  0  0  0  0
 30 61  1  0  0  0  0
 32 62  1  0  0  0  0
M  END
> <SMILES>
Cc1cc2nc(cc(c2c(c1-c1ccc2[nH]cnc2c1)C)-n1nccc1C)C(=O)NCCS(=O)(=O)C

> <FORMATTED_ID>
H3D-008845

> <MOLFORMULA>
C26H26N6O3S

> <Exact Mass>
502.18

> <XLogP>
3.64

> <TPSA_NOPS>
131

> <s_m_source_file>
ligprep_h3d.sdf

> <i_m_source_file_index>
1315

> <i_lp_mmshare_version>
55123

> <i_f3d_flags>
0

> <s_epik_input>
TjE9W0NIXU49QyhDMTIpW0NIMl1DKD1bQ0hdW0NIXT0yKWMoYyhbQ0gzXSlbY0hdMyljKFtDSDNdKWMoYzM0KWMoLW41bltjSF1bY0hdYzVbQ0gzXSlbY0hdYyhuNClDKD1PKVtOSF1bQ0gyXVtDSDJdUyg9TykoPU8pW0NIM10=

> <s_epik_cmdline>
J2VwaWtfcHl0aG9uJywgJy1waHQnLCAnMC41JywgJy1waCcsICc3LjUnLCAnLXRuJywgJzgnLCAnLW1hJywgJzUwMCcsICctaW1hZScsICc8aW5maWxlLm1hZT4nLCAnLW9tYWUnLCAnPG91dGZpbGUubWFlPic=

> <r_epik_Ionization_Penalty>
0.0135905

> <r_epik_Ionization_Penalty_Charging>
0

> <r_epik_Ionization_Penalty_Neutral>
0.0135905

> <r_epik_State_Penalty>
0.432574

> <r_epik_Charging_Adjusted_Penalty>
0.432574

> <i_epik_Tot_Q>
0

> <i_epik_Tot_abs_Q>
0

> <s_lp_Force_Field>
S-OPLS

> <r_lp_Energy>
40.6452

> <b_lp_Chiralities_Consistent>
1

> <s_lp_Variant>
ligprep_h3d.sdf:1315-2

> <ROCS_ShapeQuery>
_7L13

> <ROCS_TanimotoCombo>
0.737 

> <ROCS_ShapeTanimoto>
0.636 

> <ROCS_ColorTanimoto>
0.101 

> <ROCS_RefTversky>
0.781 

> <ROCS_RefColorTversky>
0.220 

> <ROCS_RefTverskyCombo>
1.001 

> <ROCS_FitTversky>
0.774 

> <ROCS_FitColorTversky>
0.158 

> <ROCS_FitTverskyCombo>
0.932 

> <ROCS_ColorScore>
-2.025

> <ROCS_Overlap>
1297.218

> <ROCS_Rank>
348                 

$$$$
ligprep_h3d.sdf:731_381
  -OEChem-08212117123D

 61 66  0     1  0  0  0  0  0999 V2000
  -20.7560   -4.9001  -29.5114 C   0  0  0  0  0  0  0  0  0  0  0  0
  -21.6528   -4.2744  -30.3796 C   0  0  0  0  0  0  0  0  0  0  0  0
  -20.8956   -4.6885  -28.1180 C   0  0  0  0  0  0  0  0  0  0  0  0
  -21.9340   -3.8999  -27.5691 C   0  0  0  0  0  0  0  0  0  0  0  0
  -22.6405   -3.4797  -29.8409 C   0  0  0  0  0  0  0  0  0  0  0  0
  -22.8161   -3.2629  -28.4740 C   0  0  0  0  0  0  0  0  0  0  0  0
  -21.8759   -4.1929  -31.7667 C   0  0  0  0  0  0  0  0  0  0  0  0
  -18.9170   -3.2960  -26.2117 C   0  0  0  0  0  0  0  0  0  0  0  0
  -18.8735   -5.5941  -25.0441 C   0  0  0  0  0  0  0  0  0  0  0  0
  -16.7749   -4.4695  -25.7579 C   0  0  0  0  0  0  0  0  0  0  0  0
  -19.8987   -5.3620  -27.2131 C   0  0  0  0  0  0  0  0  0  0  0  0
  -19.5343   -5.2688  -34.4025 C   0  0  0  0  0  0  0  0  0  0  0  0
  -19.8757   -4.2959  -33.2759 C   0  0  0  0  0  0  0  0  0  0  0  0
  -21.3512   -6.2108  -33.1626 C   0  0  0  0  0  0  0  0  0  0  0  0
  -23.1546   -2.9548  -25.6198 C   0  0  0  0  0  0  0  0  0  0  0  0
  -20.0553   -6.6044  -33.8803 C   0  0  1  0  0  0  0  0  0  0  0  0
  -21.0662   -4.3151  -25.2327 C   0  0  2  0  0  0  0  0  0  0  0  0
  -23.4577   -3.3312  -24.1668 C   0  0  1  0  0  0  0  0  0  0  0  0
  -21.0445   -3.3730  -23.9939 C   0  0  2  0  0  0  0  0  0  0  0  0
  -19.6787   -4.5916  -25.8873 C   0  0  0  0  0  0  0  0  0  0  0  0
  -24.2432   -4.6359  -24.0488 C   0  0  0  0  0  0  0  0  0  0  0  0
  -20.0155   -3.7011  -22.9186 C   0  0  0  0  0  0  0  0  0  0  0  0
  -20.2655   -7.6346  -34.9760 C   0  0  0  0  0  0  0  0  0  0  0  0
  -22.9165   -3.4100  -32.0674 N   0  0  0  0  0  0  0  0  0  0  0  0
  -17.5366   -3.4163  -26.2434 N   0  0  0  0  0  0  0  0  0  0  0  0
  -17.4957   -5.4910  -25.1559 N   0  0  0  0  0  0  0  0  0  0  0  0
  -22.0596   -3.7533  -26.1856 N   0  0  3  0  0  0  0  0  0  0  0  0
  -21.0817   -4.8598  -32.6751 N   0  0  0  0  0  0  0  0  0  0  0  0
  -19.4765   -2.2352  -26.4891 O   0  0  0  0  0  0  0  0  0  0  0  0
  -19.4031   -6.4878  -24.3823 O   0  0  0  0  0  0  0  0  0  0  0  0
  -15.5444   -4.4779  -25.8201 O   0  0  0  0  0  0  0  0  0  0  0  0
  -23.3977   -2.9576  -30.8443 O   0  0  0  0  0  0  0  0  0  0  0  0
  -22.3114   -3.4141  -23.3255 O   0  0  0  0  0  0  0  0  0  0  0  0
  -19.0290   -7.8647  -35.6312 O   0  0  0  0  0  0  0  0  0  0  0  0
  -23.7487   -2.3805  -28.0965 F   0  0  0  0  0  0  0  0  0  0  0  0
  -19.9600   -5.5306  -29.8978 H   0  0  0  0  0  0  0  0  0  0  0  0
  -20.2671   -6.3784  -27.0169 H   0  0  0  0  0  0  0  0  0  0  0  0
  -18.9413   -5.4716  -27.7408 H   0  0  0  0  0  0  0  0  0  0  0  0
  -20.0568   -4.9749  -35.3212 H   0  0  0  0  0  0  0  0  0  0  0  0
  -18.4606   -5.2956  -34.6119 H   0  0  0  0  0  0  0  0  0  0  0  0
  -19.0726   -4.2663  -32.5296 H   0  0  0  0  0  0  0  0  0  0  0  0
  -20.0378   -3.2832  -33.6623 H   0  0  0  0  0  0  0  0  0  0  0  0
  -22.2060   -6.1904  -33.8502 H   0  0  0  0  0  0  0  0  0  0  0  0
  -21.5752   -6.9033  -32.3428 H   0  0  0  0  0  0  0  0  0  0  0  0
  -24.0528   -3.1390  -26.2449 H   0  0  0  0  0  0  0  0  0  0  0  0
  -23.0163   -1.8632  -25.6560 H   0  0  0  0  0  0  0  0  0  0  0  0
  -19.3446   -7.0027  -33.1442 H   0  0  0  0  0  0  0  0  0  0  0  0
  -21.4936   -5.2763  -24.9071 H   0  0  0  0  0  0  0  0  0  0  0  0
  -24.1391   -2.5252  -23.7226 H   0  0  0  0  0  0  0  0  0  0  0  0
  -20.8669   -2.3261  -24.3011 H   0  0  0  0  0  0  0  0  0  0  0  0
  -23.6581   -5.4618  -24.4538 H   0  0  0  0  0  0  0  0  0  0  0  0
  -25.1784   -4.5599  -24.6037 H   0  0  0  0  0  0  0  0  0  0  0  0
  -24.4687   -4.8423  -23.0023 H   0  0  0  0  0  0  0  0  0  0  0  0
  -20.1466   -4.7283  -22.5783 H   0  0  0  0  0  0  0  0  0  0  0  0
  -20.1369   -3.0288  -22.0693 H   0  0  0  0  0  0  0  0  0  0  0  0
  -19.0083   -3.5869  -23.3194 H   0  0  0  0  0  0  0  0  0  0  0  0
  -20.9920   -7.2693  -35.7055 H   0  0  0  0  0  0  0  0  0  0  0  0
  -20.6222   -8.5748  -34.5492 H   0  0  0  0  0  0  0  0  0  0  0  0
  -17.0261   -2.6486  -26.6691 H   0  0  0  0  0  0  0  0  0  0  0  0
  -16.9507   -6.2180  -24.7013 H   0  0  0  0  0  0  0  0  0  0  0  0
  -19.1944   -8.5255  -36.3243 H   0  0  0  0  0  0  0  0  0  0  0  0
  1  2  2  0  0  0  0
  1  3  1  0  0  0  0
  2  5  1  0  0  0  0
  2  7  1  0  0  0  0
  3  4  2  0  0  0  0
  3 11  1  0  0  0  0
  4  6  1  0  0  0  0
  4 27  1  0  0  0  0
  5  6  2  0  0  0  0
  5 32  1  0  0  0  0
  6 35  1  0  0  0  0
  7 24  2  0  0  0  0
  7 28  1  0  0  0  0
  8 20  1  0  0  0  0
  8 25  1  0  0  0  0
  8 29  2  0  0  0  0
  9 20  1  0  0  0  0
  9 26  1  0  0  0  0
  9 30  2  0  0  0  0
 10 25  1  0  0  0  0
 10 26  1  0  0  0  0
 10 31  2  0  0  0  0
 11 20  1  0  0  0  0
 12 13  1  0  0  0  0
 12 16  1  0  0  0  0
 13 28  1  0  0  0  0
 14 16  1  0  0  0  0
 14 28  1  0  0  0  0
 15 18  1  0  0  0  0
 15 27  1  0  0  0  0
 16 23  1  0  0  0  0
 17 19  1  0  0  0  0
 17 20  1  0  0  0  0
 17 27  1  0  0  0  0
 18 21  1  0  0  0  0
 18 33  1  0  0  0  0
 19 22  1  0  0  0  0
 19 33  1  0  0  0  0
 23 34  1  0  0  0  0
 24 32  1  0  0  0  0
  1 36  1  0  0  0  0
 11 37  1  0  0  0  0
 11 38  1  0  0  0  0
 12 39  1  0  0  0  0
 12 40  1  0  0  0  0
 13 41  1  0  0  0  0
 13 42  1  0  0  0  0
 14 43  1  0  0  0  0
 14 44  1  0  0  0  0
 15 45  1  0  0  0  0
 15 46  1  0  0  0  0
 16 47  1  0  0  0  0
 17 48  1  0  0  0  0
 18 49  1  0  0  0  0
 19 50  1  0  0  0  0
 21 51  1  0  0  0  0
 21 52  1  0  0  0  0
 21 53  1  0  0  0  0
 22 54  1  0  0  0  0
 22 55  1  0  0  0  0
 22 56  1  0  0  0  0
 23 57  1  0  0  0  0
 23 58  1  0  0  0  0
 25 59  1  0  0  0  0
 26 60  1  0  0  0  0
 34 61  1  0  0  0  0
M  END
> <SMILES>
C[C@@H]1CN2[C@H]([C@H](C)O1)C1(Cc3cc4c(noc4c(c32)F)N2CC[C@H](CO)C2)C(=O)NC(=O)NC1=O

> <FORMATTED_ID>
H3D-004961

> <MOLFORMULA>
C23H26FN5O6

> <Exact Mass>
487.19

> <XLogP>
0.06

> <TPSA_NOPS>
137.5

> <s_m_source_file>
ligprep_h3d.sdf

> <i_m_source_file_index>
731

> <i_lp_mmshare_version>
55123

> <i_f3d_flags>
0

> <s_epik_input>
Tz1DMVtOSF1DKD1PKVtOSF1DKD1PKUMxMltDQEBIXTNOKFtDSDJdW0NAQEhdKFtDSDNdKU9bQ0BIXTNbQ0gzXSljNGMoW0NIMl0yKVtjSF1jNWMoYzRGKW9uYzVONltDSDJdW0NIMl1bQ0BASF0oW0NIMl02KVtDSDJdW09IXQ==

> <s_epik_cmdline>
J2VwaWtfcHl0aG9uJywgJy1waHQnLCAnMC41JywgJy1waCcsICc3LjUnLCAnLXRuJywgJzgnLCAnLW1hJywgJzUwMCcsICctaW1hZScsICc8aW5maWxlLm1hZT4nLCAnLW9tYWUnLCAnPG91dGZpbGUubWFlPic=

> <r_lp_tautomer_probability>
1

> <r_epik_Ionization_Penalty>
0.369132

> <r_epik_Ionization_Penalty_Charging>
0

> <r_epik_Ionization_Penalty_Neutral>
0.369132

> <r_epik_State_Penalty>
0.366447

> <r_epik_Charging_Adjusted_Penalty>
0.366447

> <i_epik_Tot_Q>
0

> <i_epik_Tot_abs_Q>
0

> <s_lp_Force_Field>
S-OPLS

> <r_lp_Energy>
41.968

> <b_lp_Chiralities_Consistent>
1

> <s_lp_Variant>
ligprep_h3d.sdf:731-1

> <ROCS_ShapeQuery>
_7L13

> <ROCS_TanimotoCombo>
0.770 

> <ROCS_ShapeTanimoto>
0.644 

> <ROCS_ColorTanimoto>
0.127 

> <ROCS_RefTversky>
0.781 

> <ROCS_RefColorTversky>
0.291 

> <ROCS_RefTverskyCombo>
1.071 

> <ROCS_FitTversky>
0.786 

> <ROCS_FitColorTversky>
0.183 

> <ROCS_FitTverskyCombo>
0.969 

> <ROCS_ColorScore>
-2.703

> <ROCS_Overlap>
1296.085

> <ROCS_Rank>
349                 

$$$$
ligprep_h3d.sdf:1131_1091
  -OEChem-08212117123D

 72 76  0     0  0  0  0  0  0999 V2000
  -20.2304   -4.0289  -32.2567 C   0  0  0  0  0  0  0  0  0  0  0  0
  -20.5223   -6.4101  -31.9701 C   0  0  0  0  0  0  0  0  0  0  0  0
  -19.6989   -4.2470  -33.5277 C   0  0  0  0  0  0  0  0  0  0  0  0
  -19.9908   -6.6282  -33.2412 C   0  0  0  0  0  0  0  0  0  0  0  0
  -16.7297   -5.6201  -26.5429 C   0  0  0  0  0  0  0  0  0  0  0  0
  -23.1068   -4.4781  -28.7365 C   0  0  0  0  0  0  0  0  0  0  0  0
  -20.6817   -4.3691  -25.3635 C   0  0  0  0  0  0  0  0  0  0  0  0
  -16.7080   -4.2222  -26.7085 C   0  0  0  0  0  0  0  0  0  0  0  0
  -20.9180   -4.6283  -27.7555 C   0  0  0  0  0  0  0  0  0  0  0  0
  -20.6420   -5.1105  -31.4778 C   0  0  0  0  0  0  0  0  0  0  0  0
  -21.1956   -4.8832  -30.1533 C   0  0  0  0  0  0  0  0  0  0  0  0
  -19.5791   -5.5466  -34.0200 C   0  0  0  0  0  0  0  0  0  0  0  0
  -22.5645   -4.6975  -30.0052 C   0  0  0  0  0  0  0  0  0  0  0  0
  -20.3723   -4.8489  -29.0315 C   0  0  0  0  0  0  0  0  0  0  0  0
  -22.3070   -4.4391  -27.5976 C   0  0  0  0  0  0  0  0  0  0  0  0
  -20.1124   -4.5889  -26.6095 C   0  0  0  0  0  0  0  0  0  0  0  0
  -22.0497   -4.1950  -25.3087 C   0  0  0  0  0  0  0  0  0  0  0  0
  -18.0645   -5.9382  -26.4834 C   0  0  0  0  0  0  0  0  0  0  0  0
  -19.7528   -7.7231  -36.8350 C   0  0  0  0  0  0  0  0  0  0  0  0
  -22.7094   -3.9624  -24.0353 C   0  0  0  0  0  0  0  0  0  0  0  0
  -21.8458   -6.9047  -37.5466 C   0  0  0  0  0  0  0  0  0  0  0  0
  -21.2463   -5.9140  -36.5600 C   0  0  0  0  0  0  0  0  0  0  0  0
  -23.4941   -4.7234  -31.1769 C   0  0  0  0  0  0  0  0  0  0  0  0
  -18.9028   -5.0577  -29.2693 C   0  0  0  0  0  0  0  0  0  0  0  0
  -18.7337   -7.2435  -26.3184 C   0  0  0  0  0  0  0  0  0  0  0  0
  -28.6832   -4.9467  -24.1278 C   0  0  0  0  0  0  0  0  0  0  0  0
  -19.0107   -5.7798  -35.3789 C   0  0  0  0  0  0  0  0  0  0  0  0
  -24.8234   -4.2420  -22.7149 C   0  0  0  0  0  0  0  0  0  0  0  0
  -26.2116   -4.8352  -22.8602 C   0  0  0  0  0  0  0  0  0  0  0  0
  -17.9319   -3.6891  -26.7515 N   0  0  0  0  0  0  0  0  0  0  0  0
  -22.8622   -4.2256  -26.3897 N   0  0  0  0  0  0  0  0  0  0  0  0
  -18.7351   -4.7576  -26.6123 N   0  0  0  0  0  0  0  0  0  0  0  0
  -20.9106   -8.0003  -37.5801 N   0  0  0  0  0  0  0  0  0  0  0  0
  -19.9366   -6.4564  -36.2514 N   0  0  0  0  0  0  0  0  0  0  0  0
  -24.0274   -4.4183  -23.9082 N   0  0  0  0  0  0  0  0  0  0  0  0
  -18.7795   -8.4568  -36.7243 O   0  0  0  0  0  0  0  0  0  0  0  0
  -22.1197   -3.3638  -23.1172 O   0  0  0  0  0  0  0  0  0  0  0  0
  -27.4064   -2.6945  -23.7671 O   0  0  0  0  0  0  0  0  0  0  0  0
  -26.4846   -4.3675  -25.4173 O   0  0  0  0  0  0  0  0  0  0  0  0
  -27.1371   -4.0689  -24.1540 S   0  0  0  0  0  0  0  0  0  0  0  0
  -20.3166   -3.0100  -31.8867 H   0  0  0  0  0  0  0  0  0  0  0  0
  -20.8393   -7.2634  -31.3753 H   0  0  0  0  0  0  0  0  0  0  0  0
  -19.3797   -3.3985  -34.1271 H   0  0  0  0  0  0  0  0  0  0  0  0
  -19.9017   -7.6441  -33.6171 H   0  0  0  0  0  0  0  0  0  0  0  0
  -15.8930   -6.3001  -26.4767 H   0  0  0  0  0  0  0  0  0  0  0  0
  -24.1819   -4.3342  -28.6352 H   0  0  0  0  0  0  0  0  0  0  0  0
  -20.0801   -4.3339  -24.4593 H   0  0  0  0  0  0  0  0  0  0  0  0
  -15.8514   -3.5700  -26.7997 H   0  0  0  0  0  0  0  0  0  0  0  0
  -22.8221   -7.2784  -37.2265 H   0  0  0  0  0  0  0  0  0  0  0  0
  -21.9206   -6.4883  -38.5552 H   0  0  0  0  0  0  0  0  0  0  0  0
  -21.1344   -4.9160  -36.9936 H   0  0  0  0  0  0  0  0  0  0  0  0
  -21.8279   -5.8584  -35.6345 H   0  0  0  0  0  0  0  0  0  0  0  0
  -23.6035   -3.7166  -31.5942 H   0  0  0  0  0  0  0  0  0  0  0  0
  -23.1200   -5.3907  -31.9619 H   0  0  0  0  0  0  0  0  0  0  0  0
  -24.4843   -5.0930  -30.8860 H   0  0  0  0  0  0  0  0  0  0  0  0
  -18.6651   -6.1224  -29.2057 H   0  0  0  0  0  0  0  0  0  0  0  0
  -18.6140   -4.6852  -30.2560 H   0  0  0  0  0  0  0  0  0  0  0  0
  -18.3102   -4.5141  -28.5281 H   0  0  0  0  0  0  0  0  0  0  0  0
  -18.8970   -7.4742  -25.2529 H   0  0  0  0  0  0  0  0  0  0  0  0
  -19.7152   -7.2718  -26.8217 H   0  0  0  0  0  0  0  0  0  0  0  0
  -18.1442   -8.0686  -26.7536 H   0  0  0  0  0  0  0  0  0  0  0  0
  -29.3269   -4.5337  -24.9061 H   0  0  0  0  0  0  0  0  0  0  0  0
  -28.4831   -6.0023  -24.3174 H   0  0  0  0  0  0  0  0  0  0  0  0
  -29.1379   -4.8139  -23.1450 H   0  0  0  0  0  0  0  0  0  0  0  0
  -18.7357   -4.8314  -35.8614 H   0  0  0  0  0  0  0  0  0  0  0  0
  -18.0976   -6.3893  -35.3346 H   0  0  0  0  0  0  0  0  0  0  0  0
  -24.8652   -3.1694  -22.5013 H   0  0  0  0  0  0  0  0  0  0  0  0
  -24.2868   -4.7356  -21.8989 H   0  0  0  0  0  0  0  0  0  0  0  0
  -26.7877   -4.6856  -21.9421 H   0  0  0  0  0  0  0  0  0  0  0  0
  -26.1748   -5.9058  -23.0834 H   0  0  0  0  0  0  0  0  0  0  0  0
  -21.0463   -8.8522  -38.1152 H   0  0  0  0  0  0  0  0  0  0  0  0
  -24.4834   -4.8442  -24.7085 H   0  0  0  0  0  0  0  0  0  0  0  0
  1  3  1  0  0  0  0
  1 10  2  0  0  0  0
  2  4  2  0  0  0  0
  2 10  1  0  0  0  0
  3 12  2  0  0  0  0
  4 12  1  0  0  0  0
  5  8  1  0  0  0  0
  5 18  2  0  0  0  0
  6 13  2  0  0  0  0
  6 15  1  0  0  0  0
  7 16  1  0  0  0  0
  7 17  2  0  0  0  0
  8 30  2  0  0  0  0
  9 14  1  0  0  0  0
  9 15  1  0  0  0  0
  9 16  2  0  0  0  0
 10 11  1  0  0  0  0
 11 13  1  0  0  0  0
 11 14  2  0  0  0  0
 12 27  1  0  0  0  0
 13 23  1  0  0  0  0
 14 24  1  0  0  0  0
 15 31  2  0  0  0  0
 16 32  1  0  0  0  0
 17 20  1  0  0  0  0
 17 31  1  0  0  0  0
 18 25  1  0  0  0  0
 18 32  1  0  0  0  0
 19 33  1  0  0  0  0
 19 34  1  0  0  0  0
 19 36  2  0  0  0  0
 20 35  1  0  0  0  0
 20 37  2  0  0  0  0
 21 22  1  0  0  0  0
 21 33  1  0  0  0  0
 22 34  1  0  0  0  0
 26 40  1  0  0  0  0
 27 34  1  0  0  0  0
 28 29  1  0  0  0  0
 28 35  1  0  0  0  0
 29 40  1  0  0  0  0
 30 32  1  0  0  0  0
 38 40  2  0  0  0  0
 39 40  2  0  0  0  0
  1 41  1  0  0  0  0
  2 42  1  0  0  0  0
  3 43  1  0  0  0  0
  4 44  1  0  0  0  0
  5 45  1  0  0  0  0
  6 46  1  0  0  0  0
  7 47  1  0  0  0  0
  8 48  1  0  0  0  0
 21 49  1  0  0  0  0
 21 50  1  0  0  0  0
 22 51  1  0  0  0  0
 22 52  1  0  0  0  0
 23 53  1  0  0  0  0
 23 54  1  0  0  0  0
 23 55  1  0  0  0  0
 24 56  1  0  0  0  0
 24 57  1  0  0  0  0
 24 58  1  0  0  0  0
 25 59  1  0  0  0  0
 25 60  1  0  0  0  0
 25 61  1  0  0  0  0
 26 62  1  0  0  0  0
 26 63  1  0  0  0  0
 26 64  1  0  0  0  0
 27 65  1  0  0  0  0
 27 66  1  0  0  0  0
 28 67  1  0  0  0  0
 28 68  1  0  0  0  0
 29 69  1  0  0  0  0
 29 70  1  0  0  0  0
 33 71  1  0  0  0  0
 35 72  1  0  0  0  0
M  END
> <SMILES>
Cc1cc2nc(cc(c2c(c1-c1ccc(cc1)CN1CCNC1=O)C)-n1nccc1C)C(=O)NCCS(=O)(=O)C

> <FORMATTED_ID>
H3D-007235

> <MOLFORMULA>
C29H32N6O4S

> <Exact Mass>
560.22

> <XLogP>
2.65

> <TPSA_NOPS>
134.7

> <s_m_source_file>
ligprep_h3d.sdf

> <i_m_source_file_index>
1131

> <i_lp_mmshare_version>
55123

> <i_f3d_flags>
0

> <s_epik_input>
Tz1TKD1PKShbQ0gzXSlbQ0gyXVtDSDJdW05IXUMoPU8pYyhuMSlbY0hdYygtbjJuW2NIXVtjSF1jMltDSDNdKWMoYzEzKWMoW0NIM10pYyhjKFtDSDNdKVtjSF0zKS1jNFtjSF1bY0hdYyhbY0hdW2NIXTQpW0NIMl1ONVtDSDJdW0NIMl1bTkhdQzU9Tw==

> <s_epik_cmdline>
J2VwaWtfcHl0aG9uJywgJy1waHQnLCAnMC41JywgJy1waCcsICc3LjUnLCAnLXRuJywgJzgnLCAnLW1hJywgJzUwMCcsICctaW1hZScsICc8aW5maWxlLm1hZT4nLCAnLW9tYWUnLCAnPG91dGZpbGUubWFlPic=

> <r_lp_tautomer_probability>
1

> <r_epik_Ionization_Penalty>
4.01044e-05

> <r_epik_Ionization_Penalty_Charging>
0

> <r_epik_Ionization_Penalty_Neutral>
4.01044e-05

> <r_epik_State_Penalty>
-0

> <r_epik_Charging_Adjusted_Penalty>
0

> <i_epik_Tot_Q>
0

> <i_epik_Tot_abs_Q>
0

> <s_lp_Force_Field>
S-OPLS

> <r_lp_Energy>
34.051

> <b_lp_Chiralities_Consistent>
1

> <s_lp_Variant>
ligprep_h3d.sdf:1131-1

> <ROCS_ShapeQuery>
_7L13

> <ROCS_TanimotoCombo>
0.696 

> <ROCS_ShapeTanimoto>
0.594 

> <ROCS_ColorTanimoto>
0.101 

> <ROCS_RefTversky>
0.781 

> <ROCS_RefColorTversky>
0.220 

> <ROCS_RefTverskyCombo>
1.001 

> <ROCS_FitTversky>
0.713 

> <ROCS_FitColorTversky>
0.158 

> <ROCS_FitTverskyCombo>
0.871 

> <ROCS_ColorScore>
-2.025

> <ROCS_Overlap>
1303.186

> <ROCS_Rank>
350                 

$$$$
ligprep_h3d.sdf:5152_353
  -OEChem-08212117123D

 64 69  0     0  0  0  0  0  0999 V2000
  -19.5546   -6.0210  -34.8029 C   0  0  0  0  0  0  0  0  0  0  0  0
  -20.2438   -4.8118  -34.8942 C   0  0  0  0  0  0  0  0  0  0  0  0
  -19.7129   -6.8309  -33.6783 C   0  0  0  0  0  0  0  0  0  0  0  0
  -21.0911   -4.4122  -33.8607 C   0  0  0  0  0  0  0  0  0  0  0  0
  -20.5602   -6.4313  -32.6448 C   0  0  0  0  0  0  0  0  0  0  0  0
  -16.2375   -3.8045  -25.5500 C   0  0  0  0  0  0  0  0  0  0  0  0
  -23.5086   -3.7790  -27.6723 C   0  0  0  0  0  0  0  0  0  0  0  0
  -20.9053   -4.5738  -28.4191 C   0  0  0  0  0  0  0  0  0  0  0  0
  -17.1940   -2.7866  -25.4622 C   0  0  0  0  0  0  0  0  0  0  0  0
  -22.6114   -4.2485  -26.7209 C   0  0  0  0  0  0  0  0  0  0  0  0
  -21.2493   -5.2220  -32.7360 C   0  0  0  0  0  0  0  0  0  0  0  0
  -21.3254   -4.6397  -27.0986 C   0  0  0  0  0  0  0  0  0  0  0  0
  -23.0994   -3.7072  -29.0054 C   0  0  0  0  0  0  0  0  0  0  0  0
  -21.8064   -4.1020  -29.3757 C   0  0  0  0  0  0  0  0  0  0  0  0
  -16.9634   -4.9558  -25.7540 C   0  0  0  0  0  0  0  0  0  0  0  0
  -18.9916   -6.8124  -26.1326 C   0  0  0  0  0  0  0  0  0  0  0  0
  -17.5387   -7.1074  -26.0902 C   0  0  0  0  0  0  0  0  0  0  0  0
  -19.3337   -5.5238  -25.9704 C   0  0  0  0  0  0  0  0  0  0  0  0
  -23.9616   -5.4191  -24.9404 C   0  0  0  0  0  0  0  0  0  0  0  0
  -23.1377   -3.0615  -24.5579 C   0  0  0  0  0  0  0  0  0  0  0  0
  -21.4462   -4.9699  -24.7830 C   0  0  0  0  0  0  0  0  0  0  0  0
  -24.2713   -5.5425  -23.4529 C   0  0  0  0  0  0  0  0  0  0  0  0
  -23.4531   -3.2019  -23.0731 C   0  0  0  0  0  0  0  0  0  0  0  0
  -22.8311   -4.4133  -25.2303 C   0  0  0  0  0  0  0  0  0  0  0  0
  -25.0244   -4.2596  -21.4534 C   0  0  0  0  0  0  0  0  0  0  0  0
  -23.9705   -1.8437  -30.1988 C   0  0  0  0  0  0  0  0  0  0  0  0
  -22.1604   -4.7927  -31.6237 C   0  0  0  0  0  0  0  0  0  0  0  0
  -18.4412   -3.2335  -25.5964 N   0  0  0  0  0  0  0  0  0  0  0  0
  -16.5794   -6.2528  -25.9148 N   0  0  0  0  0  0  0  0  0  0  0  0
  -18.3101   -4.5785  -25.7782 N   0  0  0  0  0  0  0  0  0  0  0  0
  -20.6057   -5.0741  -25.9806 N   0  0  0  0  0  0  0  0  0  0  0  0
  -24.5886   -4.1787  -22.8908 N   0  3  0  0  0  0  0  0  0  0  0  0
  -23.9728   -3.2468  -29.9455 O   0  0  0  0  0  0  0  0  0  0  0  0
  -21.4142   -4.0282  -30.6798 O   0  0  0  0  0  0  0  0  0  0  0  0
  -18.8960   -6.3326  -35.6084 H   0  0  0  0  0  0  0  0  0  0  0  0
  -20.1215   -4.1816  -35.7703 H   0  0  0  0  0  0  0  0  0  0  0  0
  -19.1773   -7.7729  -33.6074 H   0  0  0  0  0  0  0  0  0  0  0  0
  -21.6238   -3.4683  -33.9403 H   0  0  0  0  0  0  0  0  0  0  0  0
  -20.6772   -7.0686  -31.7723 H   0  0  0  0  0  0  0  0  0  0  0  0
  -15.1629   -3.7218  -25.4762 H   0  0  0  0  0  0  0  0  0  0  0  0
  -24.5105   -3.4727  -27.3877 H   0  0  0  0  0  0  0  0  0  0  0  0
  -19.9076   -4.8753  -28.7191 H   0  0  0  0  0  0  0  0  0  0  0  0
  -17.0360   -1.7294  -25.3050 H   0  0  0  0  0  0  0  0  0  0  0  0
  -19.6970   -7.6174  -26.2880 H   0  0  0  0  0  0  0  0  0  0  0  0
  -17.2789   -8.1704  -26.2243 H   0  0  0  0  0  0  0  0  0  0  0  0
  -23.7072   -6.4098  -25.3394 H   0  0  0  0  0  0  0  0  0  0  0  0
  -24.8794   -5.1146  -25.4614 H   0  0  0  0  0  0  0  0  0  0  0  0
  -23.9943   -2.5814  -25.0503 H   0  0  0  0  0  0  0  0  0  0  0  0
  -22.2952   -2.3690  -24.6839 H   0  0  0  0  0  0  0  0  0  0  0  0
  -20.9585   -4.3105  -24.0547 H   0  0  0  0  0  0  0  0  0  0  0  0
  -21.5363   -5.9586  -24.3166 H   0  0  0  0  0  0  0  0  0  0  0  0
  -25.1531   -6.1733  -23.2984 H   0  0  0  0  0  0  0  0  0  0  0  0
  -23.4307   -5.9510  -22.8825 H   0  0  0  0  0  0  0  0  0  0  0  0
  -22.5989   -3.5721  -22.4967 H   0  0  0  0  0  0  0  0  0  0  0  0
  -23.7785   -2.2413  -22.6602 H   0  0  0  0  0  0  0  0  0  0  0  0
  -24.1860   -4.6471  -20.8717 H   0  0  0  0  0  0  0  0  0  0  0  0
  -25.2953   -3.2530  -21.1293 H   0  0  0  0  0  0  0  0  0  0  0  0
  -25.8822   -4.9328  -21.4018 H   0  0  0  0  0  0  0  0  0  0  0  0
  -24.7112   -1.6102  -30.9675 H   0  0  0  0  0  0  0  0  0  0  0  0
  -22.9760   -1.5340  -30.5300 H   0  0  0  0  0  0  0  0  0  0  0  0
  -24.2263   -1.3156  -29.2772 H   0  0  0  0  0  0  0  0  0  0  0  0
  -22.9848   -4.1814  -32.0065 H   0  0  0  0  0  0  0  0  0  0  0  0
  -22.5931   -5.6632  -31.1191 H   0  0  0  0  0  0  0  0  0  0  0  0
  -25.3937   -3.8119  -23.4170 H   0  0  0  0  0  0  0  0  0  0  0  0
  1  2  2  0  0  0  0
  1  3  1  0  0  0  0
  2  4  1  0  0  0  0
  3  5  2  0  0  0  0
  4 11  2  0  0  0  0
  5 11  1  0  0  0  0
  6  9  1  0  0  0  0
  6 15  2  0  0  0  0
  7 10  1  0  0  0  0
  7 13  2  0  0  0  0
  8 12  1  0  0  0  0
  8 14  2  0  0  0  0
  9 28  2  0  0  0  0
 10 12  2  0  0  0  0
 10 24  1  0  0  0  0
 11 27  1  0  0  0  0
 12 31  1  0  0  0  0
 13 14  1  0  0  0  0
 13 33  1  0  0  0  0
 14 34  1  0  0  0  0
 15 29  1  0  0  0  0
 15 30  1  0  0  0  0
 16 17  1  0  0  0  0
 16 18  2  0  0  0  0
 17 29  2  0  0  0  0
 18 30  1  0  0  0  0
 18 31  1  0  0  0  0
 19 22  1  0  0  0  0
 19 24  1  0  0  0  0
 20 23  1  0  0  0  0
 20 24  1  0  0  0  0
 21 24  1  0  0  0  0
 21 31  1  0  0  0  0
 22 32  1  0  0  0  0
 23 32  1  0  0  0  0
 25 32  1  0  0  0  0
 26 33  1  0  0  0  0
 27 34  1  0  0  0  0
 28 30  1  0  0  0  0
  1 35  1  0  0  0  0
  2 36  1  0  0  0  0
  3 37  1  0  0  0  0
  4 38  1  0  0  0  0
  5 39  1  0  0  0  0
  6 40  1  0  0  0  0
  7 41  1  0  0  0  0
  8 42  1  0  0  0  0
  9 43  1  0  0  0  0
 16 44  1  0  0  0  0
 17 45  1  0  0  0  0
 19 46  1  0  0  0  0
 19 47  1  0  0  0  0
 20 48  1  0  0  0  0
 20 49  1  0  0  0  0
 21 50  1  0  0  0  0
 21 51  1  0  0  0  0
 22 52  1  0  0  0  0
 22 53  1  0  0  0  0
 23 54  1  0  0  0  0
 23 55  1  0  0  0  0
 25 56  1  0  0  0  0
 25 57  1  0  0  0  0
 25 58  1  0  0  0  0
 26 59  1  0  0  0  0
 26 60  1  0  0  0  0
 26 61  1  0  0  0  0
 27 62  1  0  0  0  0
 27 63  1  0  0  0  0
 32 64  1  0  0  0  0
M  CHG  1  32   1
M  END
> <SMILES>
COc1cc2c(cc1OCc1ccccc1)N(CC12CCN(C)CC1)c1ccnc2ccnn12

> <FORMATTED_ID>
H3D-013942

> <MOLFORMULA>
C27H29N5O2

> <Exact Mass>
455.23

> <XLogP>
5.44

> <TPSA_NOPS>
55.1

> <s_m_source_file>
ligprep_h3d.sdf

> <i_m_source_file_index>
5152

> <i_lp_mmshare_version>
55123

> <i_f3d_flags>
0

> <s_epik_input>
W2NIXTFbY0hdW2NIXVtjSF1bY0hdYzFbQ0gyXU9jKGMoW2NIXTIpT1tDSDNdKVtjSF1jKE4oW0NIMl0zKWMoW2NIXVtjSF1uNCluKGM0NSluW2NIXVtjSF01KWMyQzM2W0NIMl1bQ0gyXU4oW0NIM10pW0NIMl1bQ0gyXTY=

> <s_epik_cmdline>
J2VwaWtfcHl0aG9uJywgJy1waHQnLCAnMC41JywgJy1waCcsICc3LjUnLCAnLXRuJywgJzgnLCAnLW1hJywgJzUwMCcsICctaW1hZScsICc8aW5maWxlLm1hZT4nLCAnLW9tYWUnLCAnPG91dGZpbGUubWFlPic=

> <r_lp_tautomer_probability>
1

> <r_epik_Ionization_Penalty>
0.00678972

> <r_epik_Ionization_Penalty_Charging>
0.00678686

> <r_epik_Ionization_Penalty_Neutral>
2.85871e-06

> <r_epik_State_Penalty>
-0

> <r_epik_Charging_Adjusted_Penalty>
0.00678686

> <i_epik_Tot_Q>
1

> <i_epik_Tot_abs_Q>
1

> <s_lp_Force_Field>
S-OPLS

> <r_lp_Energy>
68.2861

> <b_lp_Chiralities_Consistent>
1

> <s_lp_Variant>
ligprep_h3d.sdf:5152-1

> <ROCS_ShapeQuery>
_7L13

> <ROCS_TanimotoCombo>
0.756 

> <ROCS_ShapeTanimoto>
0.660 

> <ROCS_ColorTanimoto>
0.096 

> <ROCS_RefTversky>
0.781 

> <ROCS_RefColorTversky>
0.201 

> <ROCS_RefTverskyCombo>
0.982 

> <ROCS_FitTversky>
0.810 

> <ROCS_FitColorTversky>
0.155 

> <ROCS_FitTverskyCombo>
0.965 

> <ROCS_ColorScore>
-1.841

> <ROCS_Overlap>
1293.704

> <ROCS_Rank>
351                 

$$$$
ligprep_h3d.sdf:3682_780
  -OEChem-08212117123D

 60 64  0     0  0  0  0  0  0999 V2000
  -23.3086   -4.2127  -23.3522 C   0  0  0  0  0  0  0  0  0  0  0  0
  -23.8810   -5.0981  -25.5260 C   0  0  0  0  0  0  0  0  0  0  0  0
  -23.1775   -3.4864  -32.1522 C   0  0  0  0  0  0  0  0  0  0  0  0
  -23.3300   -2.5782  -31.1047 C   0  0  0  0  0  0  0  0  0  0  0  0
  -24.6570   -4.2168  -22.9954 C   0  0  0  0  0  0  0  0  0  0  0  0
  -25.2294   -5.1023  -25.1692 C   0  0  0  0  0  0  0  0  0  0  0  0
  -21.7012   -4.8199  -30.7813 C   0  0  0  0  0  0  0  0  0  0  0  0
  -20.3991   -4.8016  -24.2146 C   0  0  0  0  0  0  0  0  0  0  0  0
  -22.9206   -4.6532  -24.6175 C   0  0  0  0  0  0  0  0  0  0  0  0
  -21.8537   -3.9116  -29.7337 C   0  0  0  0  0  0  0  0  0  0  0  0
  -22.3632   -4.6074  -31.9905 C   0  0  0  0  0  0  0  0  0  0  0  0
  -22.6681   -2.7907  -29.8954 C   0  0  0  0  0  0  0  0  0  0  0  0
  -25.6174   -4.6617  -23.9039 C   0  0  0  0  0  0  0  0  0  0  0  0
  -21.5258   -4.6493  -24.9864 C   0  0  0  0  0  0  0  0  0  0  0  0
  -19.6855   -4.5352  -26.2108 C   0  0  0  0  0  0  0  0  0  0  0  0
  -18.9880   -4.3892  -27.4297 C   0  0  0  0  0  0  0  0  0  0  0  0
  -19.6694   -4.1943  -28.5652 C   0  0  0  0  0  0  0  0  0  0  0  0
  -21.1630   -4.1370  -28.4738 C   0  0  0  0  0  0  0  0  0  0  0  0
  -22.2016   -5.5744  -33.1067 C   0  0  0  0  0  0  0  0  0  0  0  0
  -18.7137   -8.6721  -35.8445 C   0  0  0  0  0  0  0  0  0  0  0  0
  -19.5752   -7.5497  -36.4162 C   0  0  0  0  0  0  0  0  0  0  0  0
  -19.4019   -9.3703  -34.6749 C   0  0  0  0  0  0  0  0  0  0  0  0
  -19.9931   -6.5538  -35.3357 C   0  0  0  0  0  0  0  0  0  0  0  0
  -19.8190   -8.3764  -33.5921 C   0  0  0  0  0  0  0  0  0  0  0  0
  -20.6938   -7.2578  -34.1684 C   0  0  0  0  0  0  0  0  0  0  0  0
  -27.8984   -3.0653  -23.9537 C   0  0  0  0  0  0  0  0  0  0  0  0
  -19.2625   -4.7306  -24.9784 N   0  0  0  0  0  0  0  0  0  0  0  0
  -21.8369   -4.2842  -27.3676 N   0  0  0  0  0  0  0  0  0  0  0  0
  -21.0647   -4.4776  -26.2649 N   0  0  0  0  0  0  0  0  0  0  0  0
  -21.0127   -6.2877  -33.1226 N   0  0  0  0  0  0  0  0  0  0  0  0
  -23.0926   -5.6764  -33.9459 O   0  0  0  0  0  0  0  0  0  0  0  0
  -27.9816   -5.6666  -24.2718 O   0  0  0  0  0  0  0  0  0  0  0  0
  -27.4093   -4.7267  -22.0057 O   0  0  0  0  0  0  0  0  0  0  0  0
  -22.8225   -1.9119  -28.8952 F   0  0  0  0  0  0  0  0  0  0  0  0
  -27.3050   -4.6670  -23.4574 S   0  0  0  0  0  0  0  0  0  0  0  0
  -22.5718   -3.8630  -22.6330 H   0  0  0  0  0  0  0  0  0  0  0  0
  -23.5943   -5.4448  -26.5161 H   0  0  0  0  0  0  0  0  0  0  0  0
  -23.6978   -3.3109  -33.0904 H   0  0  0  0  0  0  0  0  0  0  0  0
  -23.9636   -1.7051  -31.2304 H   0  0  0  0  0  0  0  0  0  0  0  0
  -24.9484   -3.8715  -22.0071 H   0  0  0  0  0  0  0  0  0  0  0  0
  -25.9695   -5.4509  -25.8846 H   0  0  0  0  0  0  0  0  0  0  0  0
  -21.0654   -5.6938  -30.6555 H   0  0  0  0  0  0  0  0  0  0  0  0
  -20.3438   -4.9597  -23.1467 H   0  0  0  0  0  0  0  0  0  0  0  0
  -17.9048   -4.4347  -27.4340 H   0  0  0  0  0  0  0  0  0  0  0  0
  -19.1781   -4.0755  -29.5227 H   0  0  0  0  0  0  0  0  0  0  0  0
  -18.4907   -9.4025  -36.6303 H   0  0  0  0  0  0  0  0  0  0  0  0
  -17.7541   -8.2599  -35.5089 H   0  0  0  0  0  0  0  0  0  0  0  0
  -19.0229   -7.0268  -37.2052 H   0  0  0  0  0  0  0  0  0  0  0  0
  -20.4708   -7.9783  -36.8828 H   0  0  0  0  0  0  0  0  0  0  0  0
  -20.2876   -9.9053  -35.0391 H   0  0  0  0  0  0  0  0  0  0  0  0
  -18.7287  -10.1211  -34.2461 H   0  0  0  0  0  0  0  0  0  0  0  0
  -19.1034   -6.0225  -34.9738 H   0  0  0  0  0  0  0  0  0  0  0  0
  -20.6594   -5.8033  -35.7778 H   0  0  0  0  0  0  0  0  0  0  0  0
  -20.3621   -8.9115  -32.8037 H   0  0  0  0  0  0  0  0  0  0  0  0
  -18.9189   -7.9491  -33.1313 H   0  0  0  0  0  0  0  0  0  0  0  0
  -21.6444   -7.6654  -34.4996 H   0  0  0  0  0  0  0  0  0  0  0  0
  -28.9580   -2.9976  -23.7023 H   0  0  0  0  0  0  0  0  0  0  0  0
  -27.3287   -2.3054  -23.4166 H   0  0  0  0  0  0  0  0  0  0  0  0
  -27.7534   -2.9628  -25.0301 H   0  0  0  0  0  0  0  0  0  0  0  0
  -20.2952   -6.1030  -32.4282 H   0  0  0  0  0  0  0  0  0  0  0  0
  1  5  1  0  0  0  0
  1  9  2  0  0  0  0
  2  6  2  0  0  0  0
  2  9  1  0  0  0  0
  3  4  1  0  0  0  0
  3 11  2  0  0  0  0
  4 12  2  0  0  0  0
  5 13  2  0  0  0  0
  6 13  1  0  0  0  0
  7 10  2  0  0  0  0
  7 11  1  0  0  0  0
  8 14  2  0  0  0  0
  8 27  1  0  0  0  0
  9 14  1  0  0  0  0
 10 12  1  0  0  0  0
 10 18  1  0  0  0  0
 11 19  1  0  0  0  0
 12 34  1  0  0  0  0
 13 35  1  0  0  0  0
 14 29  1  0  0  0  0
 15 16  1  0  0  0  0
 15 27  2  0  0  0  0
 15 29  1  0  0  0  0
 16 17  2  0  0  0  0
 17 18  1  0  0  0  0
 18 28  2  0  0  0  0
 19 30  1  0  0  0  0
 19 31  2  0  0  0  0
 20 21  1  0  0  0  0
 20 22  1  0  0  0  0
 21 23  1  0  0  0  0
 22 24  1  0  0  0  0
 23 25  1  0  0  0  0
 24 25  1  0  0  0  0
 25 30  1  0  0  0  0
 26 35  1  0  0  0  0
 28 29  1  0  0  0  0
 32 35  2  0  0  0  0
 33 35  2  0  0  0  0
  1 36  1  0  0  0  0
  2 37  1  0  0  0  0
  3 38  1  0  0  0  0
  4 39  1  0  0  0  0
  5 40  1  0  0  0  0
  6 41  1  0  0  0  0
  7 42  1  0  0  0  0
  8 43  1  0  0  0  0
 16 44  1  0  0  0  0
 17 45  1  0  0  0  0
 20 46  1  0  0  0  0
 20 47  1  0  0  0  0
 21 48  1  0  0  0  0
 21 49  1  0  0  0  0
 22 50  1  0  0  0  0
 22 51  1  0  0  0  0
 23 52  1  0  0  0  0
 23 53  1  0  0  0  0
 24 54  1  0  0  0  0
 24 55  1  0  0  0  0
 25 56  1  0  0  0  0
 26 57  1  0  0  0  0
 26 58  1  0  0  0  0
 26 59  1  0  0  0  0
 30 60  1  0  0  0  0
M  END
> <SMILES>
CS(=O)(=O)c1ccc(cc1)-c1cnc2ccc(nn12)-c1cc(ccc1F)C(=O)NC1CCCCC1

> <FORMATTED_ID>
H3D-002221

> <MOLFORMULA>
C26H25FN4O3S

> <Exact Mass>
492.16

> <XLogP>
5.04

> <TPSA_NOPS>
101.8

> <s_m_source_file>
ligprep_h3d.sdf

> <i_m_source_file_index>
3682

> <i_lp_mmshare_version>
55123

> <i_f3d_flags>
0

> <s_epik_input>
W0NIM11TKD1PKSg9TyljMVtjSF1bY0hdYyhbY0hdW2NIXTEpLWMoW2NIXW4yKW4oYzIzKW5jKFtjSF1bY0hdMyktYzRbY0hdYyhbY0hdW2NIXWM0RilDKD1PKVtOSF1bQ0hdNVtDSDJdW0NIMl1bQ0gyXVtDSDJdW0NIMl01

> <s_epik_cmdline>
J2VwaWtfcHl0aG9uJywgJy1waHQnLCAnMC41JywgJy1waCcsICc3LjUnLCAnLXRuJywgJzgnLCAnLW1hJywgJzUwMCcsICctaW1hZScsICc8aW5maWxlLm1hZT4nLCAnLW9tYWUnLCAnPG91dGZpbGUubWFlPic=

> <r_lp_tautomer_probability>
1

> <r_epik_Ionization_Penalty>
0.000169087

> <r_epik_Ionization_Penalty_Charging>
0

> <r_epik_Ionization_Penalty_Neutral>
0.000169087

> <r_epik_State_Penalty>
-0

> <r_epik_Charging_Adjusted_Penalty>
0

> <i_epik_Tot_Q>
0

> <i_epik_Tot_abs_Q>
0

> <s_lp_Force_Field>
S-OPLS

> <r_lp_Energy>
48.1494

> <b_lp_Chiralities_Consistent>
1

> <s_lp_Variant>
ligprep_h3d.sdf:3682-1

> <ROCS_ShapeQuery>
_7L13

> <ROCS_TanimotoCombo>
0.818 

> <ROCS_ShapeTanimoto>
0.659 

> <ROCS_ColorTanimoto>
0.159 

> <ROCS_RefTversky>
0.781 

> <ROCS_RefColorTversky>
0.302 

> <ROCS_RefTverskyCombo>
1.083 

> <ROCS_FitTversky>
0.808 

> <ROCS_FitColorTversky>
0.252 

> <ROCS_FitTverskyCombo>
1.060 

> <ROCS_ColorScore>
-2.750

> <ROCS_Overlap>
1293.846

> <ROCS_Rank>
352                 

$$$$
ligprep_h3d.sdf:5332_1000
  -OEChem-08212117123D

 63 68  0     0  0  0  0  0  0999 V2000
  -19.2942   -5.9823  -36.1675 C   0  0  0  0  0  0  0  0  0  0  0  0
  -19.8254   -7.1507  -35.6214 C   0  0  0  0  0  0  0  0  0  0  0  0
  -19.3956   -4.7780  -35.4709 C   0  0  0  0  0  0  0  0  0  0  0  0
  -20.4580   -7.1149  -34.3788 C   0  0  0  0  0  0  0  0  0  0  0  0
  -20.0282   -4.7423  -34.2283 C   0  0  0  0  0  0  0  0  0  0  0  0
  -22.9872   -4.2154  -28.7927 C   0  0  0  0  0  0  0  0  0  0  0  0
  -20.2685   -4.8241  -29.2059 C   0  0  0  0  0  0  0  0  0  0  0  0
  -14.4198   -4.8764  -25.3429 C   0  0  0  0  0  0  0  0  0  0  0  0
  -14.8024   -6.0413  -25.9652 C   0  0  0  0  0  0  0  0  0  0  0  0
  -22.1147   -4.3551  -27.7202 C   0  0  0  0  0  0  0  0  0  0  0  0
  -20.5594   -5.9107  -33.6822 C   0  0  0  0  0  0  0  0  0  0  0  0
  -20.7612   -4.6557  -27.9169 C   0  0  0  0  0  0  0  0  0  0  0  0
  -22.4892   -4.3752  -30.0852 C   0  0  0  0  0  0  0  0  0  0  0  0
  -21.1382   -4.6791  -30.2904 C   0  0  0  0  0  0  0  0  0  0  0  0
  -16.5031   -4.6330  -25.7546 C   0  0  0  0  0  0  0  0  0  0  0  0
  -17.8651   -4.2457  -25.9211 C   0  0  0  0  0  0  0  0  0  0  0  0
  -18.3075   -6.3868  -26.9978 C   0  0  0  0  0  0  0  0  0  0  0  0
  -17.0266   -6.7590  -26.8455 C   0  0  0  0  0  0  0  0  0  0  0  0
  -18.7542   -5.0743  -26.5178 C   0  0  0  0  0  0  0  0  0  0  0  0
  -23.5434   -2.9347  -24.3908 C   0  0  0  0  0  0  0  0  0  0  0  0
  -23.6676   -5.4553  -24.3378 C   0  0  0  0  0  0  0  0  0  0  0  0
  -23.1603   -2.9767  -25.8681 C   0  0  0  0  0  0  0  0  0  0  0  0
  -23.2435   -5.5111  -25.8053 C   0  0  0  0  0  0  0  0  0  0  0  0
  -20.9776   -4.3067  -25.6465 C   0  0  0  0  0  0  0  0  0  0  0  0
  -24.3803   -4.1487  -23.9981 C   0  0  0  0  0  0  0  0  0  0  0  0
  -22.4226   -4.2772  -26.2432 C   0  0  0  0  0  0  0  0  0  0  0  0
  -23.4639   -2.9357  -31.7080 C   0  0  0  0  0  0  0  0  0  0  0  0
  -21.2401   -5.8714  -32.3455 C   0  0  0  0  0  0  0  0  0  0  0  0
  -15.4752   -4.0094  -25.2155 N   0  0  0  0  0  0  0  0  0  0  0  0
  -16.1388   -5.8865  -26.2296 N   0  0  0  0  0  0  0  0  0  0  0  0
  -20.0586   -4.7536  -26.7002 N   0  0  0  0  0  0  0  0  0  0  0  0
  -24.6331   -4.0923  -22.5982 O   0  0  0  0  0  0  0  0  0  0  0  0
  -23.3333   -4.2400  -31.1469 O   0  0  0  0  0  0  0  0  0  0  0  0
  -20.6551   -4.8390  -31.5556 O   0  0  0  0  0  0  0  0  0  0  0  0
  -18.8004   -6.0106  -37.1345 H   0  0  0  0  0  0  0  0  0  0  0  0
  -19.7455   -8.0887  -36.1632 H   0  0  0  0  0  0  0  0  0  0  0  0
  -18.9812   -3.8684  -35.8953 H   0  0  0  0  0  0  0  0  0  0  0  0
  -20.8691   -8.0303  -33.9611 H   0  0  0  0  0  0  0  0  0  0  0  0
  -20.1027   -3.7995  -33.6928 H   0  0  0  0  0  0  0  0  0  0  0  0
  -24.0379   -3.9967  -28.6313 H   0  0  0  0  0  0  0  0  0  0  0  0
  -19.2240   -5.0594  -29.3851 H   0  0  0  0  0  0  0  0  0  0  0  0
  -13.4356   -4.6185  -24.9801 H   0  0  0  0  0  0  0  0  0  0  0  0
  -14.2585   -6.9363  -26.2343 H   0  0  0  0  0  0  0  0  0  0  0  0
  -18.1701   -3.2696  -25.5564 H   0  0  0  0  0  0  0  0  0  0  0  0
  -19.0220   -7.0485  -27.4756 H   0  0  0  0  0  0  0  0  0  0  0  0
  -16.6489   -7.7164  -27.1834 H   0  0  0  0  0  0  0  0  0  0  0  0
  -22.6446   -2.8804  -23.7634 H   0  0  0  0  0  0  0  0  0  0  0  0
  -24.1051   -2.0169  -24.1777 H   0  0  0  0  0  0  0  0  0  0  0  0
  -24.3271   -6.3026  -24.1125 H   0  0  0  0  0  0  0  0  0  0  0  0
  -22.7991   -5.5848  -23.6807 H   0  0  0  0  0  0  0  0  0  0  0  0
  -24.0778   -2.8789  -26.4633 H   0  0  0  0  0  0  0  0  0  0  0  0
  -22.5484   -2.0992  -26.1126 H   0  0  0  0  0  0  0  0  0  0  0  0
  -22.6789   -6.4357  -25.9828 H   0  0  0  0  0  0  0  0  0  0  0  0
  -24.1505   -5.5880  -26.4204 H   0  0  0  0  0  0  0  0  0  0  0  0
  -20.6675   -3.3034  -25.3253 H   0  0  0  0  0  0  0  0  0  0  0  0
  -20.9038   -4.9613  -24.7710 H   0  0  0  0  0  0  0  0  0  0  0  0
  -25.3473   -4.1073  -24.5136 H   0  0  0  0  0  0  0  0  0  0  0  0
  -24.1650   -2.9671  -32.5455 H   0  0  0  0  0  0  0  0  0  0  0  0
  -22.4866   -2.5857  -32.0500 H   0  0  0  0  0  0  0  0  0  0  0  0
  -23.8447   -2.2558  -30.9422 H   0  0  0  0  0  0  0  0  0  0  0  0
  -22.3113   -5.6722  -32.4571 H   0  0  0  0  0  0  0  0  0  0  0  0
  -21.1283   -6.8288  -31.8252 H   0  0  0  0  0  0  0  0  0  0  0  0
  -25.1648   -4.8740  -22.3802 H   0  0  0  0  0  0  0  0  0  0  0  0
  1  2  2  0  0  0  0
  1  3  1  0  0  0  0
  2  4  1  0  0  0  0
  3  5  2  0  0  0  0
  4 11  2  0  0  0  0
  5 11  1  0  0  0  0
  6 10  1  0  0  0  0
  6 13  2  0  0  0  0
  7 12  1  0  0  0  0
  7 14  2  0  0  0  0
  8  9  2  0  0  0  0
  8 29  1  0  0  0  0
  9 30  1  0  0  0  0
 10 12  2  0  0  0  0
 10 26  1  0  0  0  0
 11 28  1  0  0  0  0
 12 31  1  0  0  0  0
 13 14  1  0  0  0  0
 13 33  1  0  0  0  0
 14 34  1  0  0  0  0
 15 16  1  0  0  0  0
 15 29  2  0  0  0  0
 15 30  1  0  0  0  0
 16 19  2  0  0  0  0
 17 18  2  0  0  0  0
 17 19  1  0  0  0  0
 18 30  1  0  0  0  0
 19 31  1  0  0  0  0
 20 22  1  0  0  0  0
 20 25  1  0  0  0  0
 21 23  1  0  0  0  0
 21 25  1  0  0  0  0
 22 26  1  0  0  0  0
 23 26  1  0  0  0  0
 24 26  1  0  0  0  0
 24 31  1  0  0  0  0
 25 32  1  0  0  0  0
 27 33  1  0  0  0  0
 28 34  1  0  0  0  0
  1 35  1  0  0  0  0
  2 36  1  0  0  0  0
  3 37  1  0  0  0  0
  4 38  1  0  0  0  0
  5 39  1  0  0  0  0
  6 40  1  0  0  0  0
  7 41  1  0  0  0  0
  8 42  1  0  0  0  0
  9 43  1  0  0  0  0
 16 44  1  0  0  0  0
 17 45  1  0  0  0  0
 18 46  1  0  0  0  0
 20 47  1  0  0  0  0
 20 48  1  0  0  0  0
 21 49  1  0  0  0  0
 21 50  1  0  0  0  0
 22 51  1  0  0  0  0
 22 52  1  0  0  0  0
 23 53  1  0  0  0  0
 23 54  1  0  0  0  0
 24 55  1  0  0  0  0
 24 56  1  0  0  0  0
 25 57  1  0  0  0  0
 27 58  1  0  0  0  0
 27 59  1  0  0  0  0
 27 60  1  0  0  0  0
 28 61  1  0  0  0  0
 28 62  1  0  0  0  0
 32 63  1  0  0  0  0
M  END
> <SMILES>
COc1cc2c(cc1OCc1ccccc1)N(CC12CCC(O)CC1)c1ccn2ccnc2c1

> <FORMATTED_ID>
H3D-014936

> <MOLFORMULA>
C28H29N3O3

> <Exact Mass>
455.22

> <XLogP>
6.35

> <TPSA_NOPS>
59.2

> <s_m_source_file>
ligprep_h3d.sdf

> <i_m_source_file_index>
5332

> <i_lp_mmshare_version>
55123

> <i_f3d_flags>
0

> <s_epik_input>
W2NIXTFbY0hdW2NIXVtjSF1bY0hdYzFbQ0gyXU9jKGMoW2NIXTIpT1tDSDNdKVtjSF1jKGMyW0NAXTM0W0NIMl1bQ0gyXVtDQEhdKFtPSF0pW0NIMl1bQ0gyXTQpTihbQ0gyXTMpYyhbY0hdW2NIXTUpW2NIXWMobjU2KW5bY0hdW2NIXTY=

> <s_epik_cmdline>
J2VwaWtfcHl0aG9uJywgJy1waHQnLCAnMC41JywgJy1waCcsICc3LjUnLCAnLXRuJywgJzgnLCAnLW1hJywgJzUwMCcsICctaW1hZScsICc8aW5maWxlLm1hZT4nLCAnLW9tYWUnLCAnPG91dGZpbGUubWFlPic=

> <r_lp_tautomer_probability>
1

> <r_epik_Ionization_Penalty>
0.519472

> <r_epik_Ionization_Penalty_Charging>
0.519472

> <r_epik_Ionization_Penalty_Neutral>
2.64446e-07

> <r_epik_State_Penalty>
0.527369

> <r_epik_Charging_Adjusted_Penalty>
1.04684

> <i_epik_Tot_Q>
0

> <i_epik_Tot_abs_Q>
0

> <s_lp_Force_Field>
S-OPLS

> <r_lp_Energy>
57.8165

> <b_lp_Chiralities_Consistent>
1

> <s_lp_Variant>
ligprep_h3d.sdf:5332-2

> <ROCS_ShapeQuery>
_7L13

> <ROCS_TanimotoCombo>
0.775 

> <ROCS_ShapeTanimoto>
0.661 

> <ROCS_ColorTanimoto>
0.113 

> <ROCS_RefTversky>
0.781 

> <ROCS_RefColorTversky>
0.224 

> <ROCS_RefTverskyCombo>
1.005 

> <ROCS_FitTversky>
0.813 

> <ROCS_FitColorTversky>
0.187 

> <ROCS_FitTverskyCombo>
0.999 

> <ROCS_ColorScore>
-2.041

> <ROCS_Overlap>
1293.408

> <ROCS_Rank>
353                 

$$$$
ligprep_h3d.sdf:1043_1629
  -OEChem-08212117123D

 71 75  0     0  0  0  0  0  0999 V2000
  -20.2397   -4.0010  -32.2712 C   0  0  0  0  0  0  0  0  0  0  0  0
  -20.5300   -6.3835  -31.9947 C   0  0  0  0  0  0  0  0  0  0  0  0
  -19.7091   -4.2133  -33.5436 C   0  0  0  0  0  0  0  0  0  0  0  0
  -19.9995   -6.5958  -33.2672 C   0  0  0  0  0  0  0  0  0  0  0  0
  -16.7336   -5.6149  -26.5672 C   0  0  0  0  0  0  0  0  0  0  0  0
  -23.1130   -4.4671  -28.7507 C   0  0  0  0  0  0  0  0  0  0  0  0
  -20.6853   -4.3713  -25.3791 C   0  0  0  0  0  0  0  0  0  0  0  0
  -16.7129   -4.2164  -26.7267 C   0  0  0  0  0  0  0  0  0  0  0  0
  -20.9234   -4.6203  -27.7721 C   0  0  0  0  0  0  0  0  0  0  0  0
  -20.6501   -5.0862  -31.4967 C   0  0  0  0  0  0  0  0  0  0  0  0
  -21.2028   -4.8649  -30.1708 C   0  0  0  0  0  0  0  0  0  0  0  0
  -19.5890   -5.5107  -34.0416 C   0  0  0  0  0  0  0  0  0  0  0  0
  -22.5717   -4.6807  -30.0208 C   0  0  0  0  0  0  0  0  0  0  0  0
  -20.3786   -4.8351  -29.0495 C   0  0  0  0  0  0  0  0  0  0  0  0
  -22.3123   -4.4326  -27.6123 C   0  0  0  0  0  0  0  0  0  0  0  0
  -20.1169   -4.5854  -26.6265 C   0  0  0  0  0  0  0  0  0  0  0  0
  -22.0534   -4.1982  -25.3225 C   0  0  0  0  0  0  0  0  0  0  0  0
  -18.0682   -5.9340  -26.5080 C   0  0  0  0  0  0  0  0  0  0  0  0
  -19.7755   -7.6511  -36.8593 C   0  0  0  0  0  0  0  0  0  0  0  0
  -22.7122   -3.9715  -24.0477 C   0  0  0  0  0  0  0  0  0  0  0  0
  -21.2820   -5.9303  -36.4919 C   0  0  0  0  0  0  0  0  0  0  0  0
  -21.7780   -6.8352  -37.5923 C   0  0  0  0  0  0  0  0  0  0  0  0
  -23.5022   -4.7020  -31.1918 C   0  0  0  0  0  0  0  0  0  0  0  0
  -18.9092   -5.0419  -29.2893 C   0  0  0  0  0  0  0  0  0  0  0  0
  -18.7365   -7.2404  -26.3480 C   0  0  0  0  0  0  0  0  0  0  0  0
  -28.6856   -4.9587  -24.1397 C   0  0  0  0  0  0  0  0  0  0  0  0
  -19.0215   -5.7377  -35.4019 C   0  0  0  0  0  0  0  0  0  0  0  0
  -24.8250   -4.2580  -22.7267 C   0  0  0  0  0  0  0  0  0  0  0  0
  -26.2130   -4.8514  -22.8735 C   0  0  0  0  0  0  0  0  0  0  0  0
  -17.9371   -3.6838  -26.7664 N   0  0  0  0  0  0  0  0  0  0  0  0
  -22.8668   -4.2246  -26.4031 N   0  0  0  0  0  0  0  0  0  0  0  0
  -18.7396   -4.7533  -26.6312 N   0  0  0  0  0  0  0  0  0  0  0  0
  -19.9515   -6.4137  -36.2800 N   0  0  0  0  0  0  0  0  0  0  0  0
  -24.0298   -4.4287  -23.9214 N   0  0  0  0  0  0  0  0  0  0  0  0
  -18.7989   -8.3835  -36.7796 O   0  0  0  0  0  0  0  0  0  0  0  0
  -22.1222   -3.3766  -23.1274 O   0  0  0  0  0  0  0  0  0  0  0  0
  -27.4097   -2.7074  -23.7702 O   0  0  0  0  0  0  0  0  0  0  0  0
  -26.4883   -4.3727  -25.4284 O   0  0  0  0  0  0  0  0  0  0  0  0
  -20.9086   -7.9792  -37.5637 O   0  0  0  0  0  0  0  0  0  0  0  0
  -27.1399   -4.0799  -24.1633 S   0  0  0  0  0  0  0  0  0  0  0  0
  -20.3262   -2.9838  -31.8967 H   0  0  0  0  0  0  0  0  0  0  0  0
  -20.8461   -7.2397  -31.4034 H   0  0  0  0  0  0  0  0  0  0  0  0
  -19.3909   -3.3621  -34.1395 H   0  0  0  0  0  0  0  0  0  0  0  0
  -19.9101   -7.6100  -33.6476 H   0  0  0  0  0  0  0  0  0  0  0  0
  -15.8965   -6.2948  -26.5045 H   0  0  0  0  0  0  0  0  0  0  0  0
  -24.1882   -4.3242  -28.6479 H   0  0  0  0  0  0  0  0  0  0  0  0
  -20.0831   -4.3397  -24.4753 H   0  0  0  0  0  0  0  0  0  0  0  0
  -15.8566   -3.5633  -26.8157 H   0  0  0  0  0  0  0  0  0  0  0  0
  -21.2865   -4.8753  -36.7774 H   0  0  0  0  0  0  0  0  0  0  0  0
  -21.8524   -6.0678  -35.5681 H   0  0  0  0  0  0  0  0  0  0  0  0
  -22.8090   -7.1600  -37.4259 H   0  0  0  0  0  0  0  0  0  0  0  0
  -21.6997   -6.3699  -38.5802 H   0  0  0  0  0  0  0  0  0  0  0  0
  -23.6125   -3.6935  -31.6047 H   0  0  0  0  0  0  0  0  0  0  0  0
  -23.1284   -5.3657  -31.9800 H   0  0  0  0  0  0  0  0  0  0  0  0
  -24.4920   -5.0734  -30.9018 H   0  0  0  0  0  0  0  0  0  0  0  0
  -18.6709   -6.1069  -29.2306 H   0  0  0  0  0  0  0  0  0  0  0  0
  -18.6214   -4.6650  -30.2747 H   0  0  0  0  0  0  0  0  0  0  0  0
  -18.3163   -4.5013  -28.5462 H   0  0  0  0  0  0  0  0  0  0  0  0
  -18.8988   -7.4759  -25.2835 H   0  0  0  0  0  0  0  0  0  0  0  0
  -19.7184   -7.2672  -26.8507 H   0  0  0  0  0  0  0  0  0  0  0  0
  -18.1469   -8.0633  -26.7873 H   0  0  0  0  0  0  0  0  0  0  0  0
  -29.3301   -4.5427  -24.9156 H   0  0  0  0  0  0  0  0  0  0  0  0
  -28.4850   -6.0134  -24.3340 H   0  0  0  0  0  0  0  0  0  0  0  0
  -29.1396   -4.8304  -23.1560 H   0  0  0  0  0  0  0  0  0  0  0  0
  -18.7474   -4.7870  -35.8805 H   0  0  0  0  0  0  0  0  0  0  0  0
  -18.1081   -6.3469  -35.3610 H   0  0  0  0  0  0  0  0  0  0  0  0
  -24.8672   -3.1864  -22.5085 H   0  0  0  0  0  0  0  0  0  0  0  0
  -24.2875   -4.7548  -21.9134 H   0  0  0  0  0  0  0  0  0  0  0  0
  -26.7885   -4.7060  -21.9544 H   0  0  0  0  0  0  0  0  0  0  0  0
  -26.1758   -5.9209  -23.1014 H   0  0  0  0  0  0  0  0  0  0  0  0
  -24.4863   -4.8513  -24.7232 H   0  0  0  0  0  0  0  0  0  0  0  0
  1  3  1  0  0  0  0
  1 10  2  0  0  0  0
  2  4  2  0  0  0  0
  2 10  1  0  0  0  0
  3 12  2  0  0  0  0
  4 12  1  0  0  0  0
  5  8  1  0  0  0  0
  5 18  2  0  0  0  0
  6 13  2  0  0  0  0
  6 15  1  0  0  0  0
  7 16  1  0  0  0  0
  7 17  2  0  0  0  0
  8 30  2  0  0  0  0
  9 14  1  0  0  0  0
  9 15  1  0  0  0  0
  9 16  2  0  0  0  0
 10 11  1  0  0  0  0
 11 13  1  0  0  0  0
 11 14  2  0  0  0  0
 12 27  1  0  0  0  0
 13 23  1  0  0  0  0
 14 24  1  0  0  0  0
 15 31  2  0  0  0  0
 16 32  1  0  0  0  0
 17 20  1  0  0  0  0
 17 31  1  0  0  0  0
 18 25  1  0  0  0  0
 18 32  1  0  0  0  0
 19 33  1  0  0  0  0
 19 35  2  0  0  0  0
 19 39  1  0  0  0  0
 20 34  1  0  0  0  0
 20 36  2  0  0  0  0
 21 22  1  0  0  0  0
 21 33  1  0  0  0  0
 22 39  1  0  0  0  0
 26 40  1  0  0  0  0
 27 33  1  0  0  0  0
 28 29  1  0  0  0  0
 28 34  1  0  0  0  0
 29 40  1  0  0  0  0
 30 32  1  0  0  0  0
 37 40  2  0  0  0  0
 38 40  2  0  0  0  0
  1 41  1  0  0  0  0
  2 42  1  0  0  0  0
  3 43  1  0  0  0  0
  4 44  1  0  0  0  0
  5 45  1  0  0  0  0
  6 46  1  0  0  0  0
  7 47  1  0  0  0  0
  8 48  1  0  0  0  0
 21 49  1  0  0  0  0
 21 50  1  0  0  0  0
 22 51  1  0  0  0  0
 22 52  1  0  0  0  0
 23 53  1  0  0  0  0
 23 54  1  0  0  0  0
 23 55  1  0  0  0  0
 24 56  1  0  0  0  0
 24 57  1  0  0  0  0
 24 58  1  0  0  0  0
 25 59  1  0  0  0  0
 25 60  1  0  0  0  0
 25 61  1  0  0  0  0
 26 62  1  0  0  0  0
 26 63  1  0  0  0  0
 26 64  1  0  0  0  0
 27 65  1  0  0  0  0
 27 66  1  0  0  0  0
 28 67  1  0  0  0  0
 28 68  1  0  0  0  0
 29 69  1  0  0  0  0
 29 70  1  0  0  0  0
 34 71  1  0  0  0  0
M  END
> <SMILES>
Cc1cc2nc(cc(c2c(c1-c1ccc(cc1)CN1CCOC1=O)C)-n1nccc1C)C(=O)NCCS(=O)(=O)C

> <FORMATTED_ID>
H3D-006602

> <MOLFORMULA>
C29H31N5O5S

> <Exact Mass>
561.2

> <XLogP>
3.22

> <TPSA_NOPS>
131.9

> <s_m_source_file>
ligprep_h3d.sdf

> <i_m_source_file_index>
1043

> <i_lp_mmshare_version>
55123

> <i_f3d_flags>
0

> <s_epik_input>
Tz1TKD1PKShbQ0gzXSlbQ0gyXVtDSDJdW05IXUMoPU8pYyhuMSlbY0hdYygtbjJuW2NIXVtjSF1jMltDSDNdKWMoYzEzKWMoW0NIM10pYyhjKFtDSDNdKVtjSF0zKS1jNFtjSF1bY0hdYyhbY0hdW2NIXTQpW0NIMl1ONVtDSDJdW0NIMl1PQzU9Tw==

> <s_epik_cmdline>
J2VwaWtfcHl0aG9uJywgJy1waHQnLCAnMC41JywgJy1waCcsICc3LjUnLCAnLXRuJywgJzgnLCAnLW1hJywgJzUwMCcsICctaW1hZScsICc8aW5maWxlLm1hZT4nLCAnLW9tYWUnLCAnPG91dGZpbGUubWFlPic=

> <r_lp_tautomer_probability>
1

> <r_epik_Ionization_Penalty>
2.22607e-05

> <r_epik_Ionization_Penalty_Charging>
0

> <r_epik_Ionization_Penalty_Neutral>
2.22607e-05

> <r_epik_State_Penalty>
-0

> <r_epik_Charging_Adjusted_Penalty>
0

> <i_epik_Tot_Q>
0

> <i_epik_Tot_abs_Q>
0

> <s_epik_Chemistry_Notes>
This compound has an ester and may undergo hydrolysis at high or low pH.

> <s_lp_Force_Field>
S-OPLS

> <r_lp_Energy>
29.1943

> <b_lp_Chiralities_Consistent>
1

> <s_lp_Variant>
ligprep_h3d.sdf:1043-1

> <ROCS_ShapeQuery>
_7L13

> <ROCS_TanimotoCombo>
0.700 

> <ROCS_ShapeTanimoto>
0.593 

> <ROCS_ColorTanimoto>
0.107 

> <ROCS_RefTversky>
0.781 

> <ROCS_RefColorTversky>
0.222 

> <ROCS_RefTverskyCombo>
1.002 

> <ROCS_FitTversky>
0.712 

> <ROCS_FitColorTversky>
0.171 

> <ROCS_FitTverskyCombo>
0.883 

> <ROCS_ColorScore>
-2.027

> <ROCS_Overlap>
1303.209

> <ROCS_Rank>
354                 

$$$$
ligprep_h3d.sdf:1196_993
  -OEChem-08212117123D

 74 78  0     1  0  0  0  0  0999 V2000
  -19.7837   -4.5095  -32.3212 C   0  0  0  0  0  0  0  0  0  0  0  0
  -20.3591   -6.8176  -31.8982 C   0  0  0  0  0  0  0  0  0  0  0  0
  -19.2021   -4.8768  -33.5346 C   0  0  0  0  0  0  0  0  0  0  0  0
  -19.7776   -7.1849  -33.1117 C   0  0  0  0  0  0  0  0  0  0  0  0
  -16.8469   -6.0433  -26.2833 C   0  0  0  0  0  0  0  0  0  0  0  0
  -22.9059   -4.3847  -28.9890 C   0  0  0  0  0  0  0  0  0  0  0  0
  -20.6986   -4.2895  -25.4692 C   0  0  0  0  0  0  0  0  0  0  0  0
  -16.6578   -4.6721  -26.5395 C   0  0  0  0  0  0  0  0  0  0  0  0
  -20.8133   -4.6975  -27.8494 C   0  0  0  0  0  0  0  0  0  0  0  0
  -20.3622   -5.4799  -31.5030 C   0  0  0  0  0  0  0  0  0  0  0  0
  -20.9680   -5.0971  -30.2385 C   0  0  0  0  0  0  0  0  0  0  0  0
  -19.1990   -6.2145  -33.9299 C   0  0  0  0  0  0  0  0  0  0  0  0
  -22.3139   -4.7543  -30.1992 C   0  0  0  0  0  0  0  0  0  0  0  0
  -20.2175   -5.0692  -29.0666 C   0  0  0  0  0  0  0  0  0  0  0  0
  -22.1792   -4.3483  -27.8021 C   0  0  0  0  0  0  0  0  0  0  0  0
  -20.0812   -4.6608  -26.6549 C   0  0  0  0  0  0  0  0  0  0  0  0
  -22.0390   -3.9652  -25.5220 C   0  0  0  0  0  0  0  0  0  0  0  0
  -18.2101   -6.2102  -26.2964 C   0  0  0  0  0  0  0  0  0  0  0  0
  -20.6956   -6.8414  -36.5727 C   0  0  0  0  0  0  0  0  0  0  0  0
  -22.7463   -3.5694  -24.3162 C   0  0  0  0  0  0  0  0  0  0  0  0
  -19.1671   -8.5789  -36.6762 C   0  0  0  0  0  0  0  0  0  0  0  0
  -20.4770   -8.9953  -37.2980 C   0  0  0  0  0  0  0  0  0  0  0  0
  -23.1657   -4.7661  -31.4288 C   0  0  0  0  0  0  0  0  0  0  0  0
  -18.7690   -5.4523  -29.1865 C   0  0  0  0  0  0  0  0  0  0  0  0
  -19.0311   -7.4199  -26.0923 C   0  0  0  0  0  0  0  0  0  0  0  0
  -17.9757   -5.4210  -35.9953 C   0  0  0  0  0  0  0  0  0  0  0  0
  -26.9899   -6.1283  -21.9571 C   0  0  0  0  0  0  0  0  0  0  0  0
  -24.9368   -2.8231  -23.3489 C   0  0  0  0  0  0  0  0  0  0  0  0
  -26.1062   -3.7600  -23.1139 C   0  0  0  0  0  0  0  0  0  0  0  0
  -18.5770   -6.6073  -35.2271 C   0  0  2  0  0  0  0  0  0  0  0  0
  -17.8088   -4.0146  -26.7034 N   0  0  0  0  0  0  0  0  0  0  0  0
  -22.7810   -3.9876  -26.6529 N   0  0  0  0  0  0  0  0  0  0  0  0
  -18.7343   -4.9769  -26.5501 N   0  0  0  0  0  0  0  0  0  0  0  0
  -19.5020   -7.3214  -36.0800 N   0  0  0  0  0  0  0  0  0  0  0  0
  -24.1046   -3.2551  -24.4487 N   0  0  0  0  0  0  0  0  0  0  0  0
  -21.2144   -5.7557  -36.3525 O   0  0  0  0  0  0  0  0  0  0  0  0
  -22.1491   -3.4986  -23.2267 O   0  0  0  0  0  0  0  0  0  0  0  0
  -25.4217   -6.1033  -24.0482 O   0  0  0  0  0  0  0  0  0  0  0  0
  -24.4948   -5.3612  -21.8207 O   0  0  0  0  0  0  0  0  0  0  0  0
  -21.2491   -7.7876  -37.4011 O   0  0  0  0  0  0  0  0  0  0  0  0
  -25.5849   -5.4136  -22.7799 S   0  0  0  0  0  0  0  0  0  0  0  0
  -19.7775   -3.4627  -32.0267 H   0  0  0  0  0  0  0  0  0  0  0  0
  -20.8066   -7.5855  -31.2717 H   0  0  0  0  0  0  0  0  0  0  0  0
  -18.7527   -4.1143  -34.1652 H   0  0  0  0  0  0  0  0  0  0  0  0
  -19.7801   -8.2294  -33.4121 H   0  0  0  0  0  0  0  0  0  0  0  0
  -16.0979   -6.8030  -26.1136 H   0  0  0  0  0  0  0  0  0  0  0  0
  -23.9622   -4.1185  -28.9730 H   0  0  0  0  0  0  0  0  0  0  0  0
  -20.1544   -4.2529  -24.5295 H   0  0  0  0  0  0  0  0  0  0  0  0
  -15.7291   -4.1246  -26.6136 H   0  0  0  0  0  0  0  0  0  0  0  0
  -18.8036   -9.2942  -35.9328 H   0  0  0  0  0  0  0  0  0  0  0  0
  -18.3948   -8.4084  -37.4337 H   0  0  0  0  0  0  0  0  0  0  0  0
  -20.3422   -9.4248  -38.2946 H   0  0  0  0  0  0  0  0  0  0  0  0
  -21.0290   -9.7024  -36.6703 H   0  0  0  0  0  0  0  0  0  0  0  0
  -23.1349   -3.7869  -31.9188 H   0  0  0  0  0  0  0  0  0  0  0  0
  -22.8211   -5.5259  -32.1397 H   0  0  0  0  0  0  0  0  0  0  0  0
  -24.2074   -5.0041  -31.1841 H   0  0  0  0  0  0  0  0  0  0  0  0
  -18.6571   -6.5289  -29.0358 H   0  0  0  0  0  0  0  0  0  0  0  0
  -18.3792   -5.1870  -30.1731 H   0  0  0  0  0  0  0  0  0  0  0  0
  -18.1662   -4.9228  -28.4433 H   0  0  0  0  0  0  0  0  0  0  0  0
  -19.2853   -7.5525  -25.0279 H   0  0  0  0  0  0  0  0  0  0  0  0
  -19.9762   -7.3792  -26.6601 H   0  0  0  0  0  0  0  0  0  0  0  0
  -18.5123   -8.3337  -26.4294 H   0  0  0  0  0  0  0  0  0  0  0  0
  -18.7419   -4.6658  -36.2023 H   0  0  0  0  0  0  0  0  0  0  0  0
  -17.1734   -4.9422  -35.4226 H   0  0  0  0  0  0  0  0  0  0  0  0
  -17.5443   -5.7358  -36.9521 H   0  0  0  0  0  0  0  0  0  0  0  0
  -26.7538   -7.1646  -21.7100 H   0  0  0  0  0  0  0  0  0  0  0  0
  -27.1866   -5.5543  -21.0503 H   0  0  0  0  0  0  0  0  0  0  0  0
  -27.8451   -6.0815  -22.6328 H   0  0  0  0  0  0  0  0  0  0  0  0
  -25.2750   -1.8061  -23.5702 H   0  0  0  0  0  0  0  0  0  0  0  0
  -24.2979   -2.7887  -22.4612 H   0  0  0  0  0  0  0  0  0  0  0  0
  -26.7373   -3.8126  -24.0061 H   0  0  0  0  0  0  0  0  0  0  0  0
  -26.7193   -3.4399  -22.2660 H   0  0  0  0  0  0  0  0  0  0  0  0
  -17.7541   -7.3234  -35.0545 H   0  0  0  0  0  0  0  0  0  0  0  0
  -24.5282   -3.2680  -25.3707 H   0  0  0  0  0  0  0  0  0  0  0  0
  1  3  1  0  0  0  0
  1 10  2  0  0  0  0
  2  4  2  0  0  0  0
  2 10  1  0  0  0  0
  3 12  2  0  0  0  0
  4 12  1  0  0  0  0
  5  8  1  0  0  0  0
  5 18  2  0  0  0  0
  6 13  1  0  0  0  0
  6 15  2  0  0  0  0
  7 16  2  0  0  0  0
  7 17  1  0  0  0  0
  8 31  2  0  0  0  0
  9 14  2  0  0  0  0
  9 15  1  0  0  0  0
  9 16  1  0  0  0  0
 10 11  1  0  0  0  0
 11 13  2  0  0  0  0
 11 14  1  0  0  0  0
 12 30  1  0  0  0  0
 13 23  1  0  0  0  0
 14 24  1  0  0  0  0
 15 32  1  0  0  0  0
 16 33  1  0  0  0  0
 17 20  1  0  0  0  0
 17 32  2  0  0  0  0
 18 25  1  0  0  0  0
 18 33  1  0  0  0  0
 19 34  1  0  0  0  0
 19 36  2  0  0  0  0
 19 40  1  0  0  0  0
 20 35  1  0  0  0  0
 20 37  2  0  0  0  0
 21 22  1  0  0  0  0
 21 34  1  0  0  0  0
 22 40  1  0  0  0  0
 26 30  1  0  0  0  0
 27 41  1  0  0  0  0
 28 29  1  0  0  0  0
 28 35  1  0  0  0  0
 29 41  1  0  0  0  0
 30 34  1  0  0  0  0
 31 33  1  0  0  0  0
 38 41  2  0  0  0  0
 39 41  2  0  0  0  0
  1 42  1  0  0  0  0
  2 43  1  0  0  0  0
  3 44  1  0  0  0  0
  4 45  1  0  0  0  0
  5 46  1  0  0  0  0
  6 47  1  0  0  0  0
  7 48  1  0  0  0  0
  8 49  1  0  0  0  0
 21 50  1  0  0  0  0
 21 51  1  0  0  0  0
 22 52  1  0  0  0  0
 22 53  1  0  0  0  0
 23 54  1  0  0  0  0
 23 55  1  0  0  0  0
 23 56  1  0  0  0  0
 24 57  1  0  0  0  0
 24 58  1  0  0  0  0
 24 59  1  0  0  0  0
 25 60  1  0  0  0  0
 25 61  1  0  0  0  0
 25 62  1  0  0  0  0
 26 63  1  0  0  0  0
 26 64  1  0  0  0  0
 26 65  1  0  0  0  0
 27 66  1  0  0  0  0
 27 67  1  0  0  0  0
 27 68  1  0  0  0  0
 28 69  1  0  0  0  0
 28 70  1  0  0  0  0
 29 71  1  0  0  0  0
 29 72  1  0  0  0  0
 30 73  1  0  0  0  0
 35 74  1  0  0  0  0
M  END
> <SMILES>
CC(N1CCOC1=O)c1ccc(cc1)-c1c(cc2nc(cc(c2c1C)-n1nccc1C)C(=O)NCCS(=O)(=O)C)C

> <FORMATTED_ID>
H3D-008297

> <MOLFORMULA>
C30H33N5O5S

> <Exact Mass>
575.22

> <XLogP>
3.72

> <TPSA_NOPS>
131.9

> <s_m_source_file>
ligprep_h3d.sdf

> <i_m_source_file_index>
1196

> <i_lp_mmshare_version>
55123

> <i_f3d_flags>
0

> <s_epik_input>
Tz1DMU9bQ0gyXVtDSDJdTjFbQ0BASF0oW0NIM10pYzJbY0hdW2NIXWMoW2NIXVtjSF0yKS1jKGMoW2NIXTMpW0NIM10pYyhbQ0gzXSljKGMzNCljKC1uNW5bY0hdW2NIXWM1W0NIM10pW2NIXWMobjQpQyg9TylbTkhdW0NIMl1bQ0gyXVMoPU8pKD1PKVtDSDNd

> <s_epik_cmdline>
J2VwaWtfcHl0aG9uJywgJy1waHQnLCAnMC41JywgJy1waCcsICc3LjUnLCAnLXRuJywgJzgnLCAnLW1hJywgJzUwMCcsICctaW1hZScsICc8aW5maWxlLm1hZT4nLCAnLW9tYWUnLCAnPG91dGZpbGUubWFlPic=

> <r_lp_tautomer_probability>
1

> <r_epik_Ionization_Penalty>
2.231e-05

> <r_epik_Ionization_Penalty_Charging>
0

> <r_epik_Ionization_Penalty_Neutral>
2.231e-05

> <r_epik_State_Penalty>
-0

> <r_epik_Charging_Adjusted_Penalty>
0

> <i_epik_Tot_Q>
0

> <i_epik_Tot_abs_Q>
0

> <s_epik_Chemistry_Notes>
This compound has an ester and may undergo hydrolysis at high or low pH.

> <s_lp_Force_Field>
S-OPLS

> <r_lp_Energy>
33.6776

> <b_lp_Chiralities_Consistent>
1

> <s_lp_Variant>
ligprep_h3d.sdf:1196-1

> <ROCS_ShapeQuery>
_7L13

> <ROCS_TanimotoCombo>
0.684 

> <ROCS_ShapeTanimoto>
0.583 

> <ROCS_ColorTanimoto>
0.101 

> <ROCS_RefTversky>
0.781 

> <ROCS_RefColorTversky>
0.211 

> <ROCS_RefTverskyCombo>
0.991 

> <ROCS_FitTversky>
0.697 

> <ROCS_FitColorTversky>
0.163 

> <ROCS_FitTverskyCombo>
0.859 

> <ROCS_ColorScore>
-1.928

> <ROCS_Overlap>
1304.929

> <ROCS_Rank>
355                 

$$$$
ligprep_h3d.sdf:383_177
  -OEChem-08212117123D

 59 64  0     1  0  0  0  0  0999 V2000
  -20.8304   -5.0518  -29.4980 C   0  0  0  0  0  0  0  0  0  0  0  0
  -21.6378   -4.3475  -30.3934 C   0  0  0  0  0  0  0  0  0  0  0  0
  -20.9962   -4.8283  -28.1094 C   0  0  0  0  0  0  0  0  0  0  0  0
  -21.9766   -3.9491  -27.5926 C   0  0  0  0  0  0  0  0  0  0  0  0
  -22.5668   -3.4667  -29.8851 C   0  0  0  0  0  0  0  0  0  0  0  0
  -22.7672   -3.2349  -28.5240 C   0  0  0  0  0  0  0  0  0  0  0  0
  -21.8067   -4.2462  -31.7868 C   0  0  0  0  0  0  0  0  0  0  0  0
  -18.9639   -3.6205  -26.1348 C   0  0  0  0  0  0  0  0  0  0  0  0
  -19.1669   -5.9131  -24.9733 C   0  0  0  0  0  0  0  0  0  0  0  0
  -16.9529   -4.9829  -25.6143 C   0  0  0  0  0  0  0  0  0  0  0  0
  -20.0947   -5.5893  -27.1742 C   0  0  0  0  0  0  0  0  0  0  0  0
  -20.5224   -6.3100  -32.3029 C   0  0  0  0  0  0  0  0  0  0  0  0
  -20.7337   -4.4715  -34.0177 C   0  0  0  0  0  0  0  0  0  0  0  0
  -23.1705   -2.8974  -25.6817 C   0  0  0  0  0  0  0  0  0  0  0  0
  -20.4723   -7.2314  -33.5120 C   0  0  0  0  0  0  0  0  0  0  0  0
  -19.3536   -4.9247  -34.4689 C   0  0  0  0  0  0  0  0  0  0  0  0
  -21.2276   -4.4411  -25.2301 C   0  0  2  0  0  0  0  0  0  0  0  0
  -23.5542   -3.2449  -24.2405 C   0  0  1  0  0  0  0  0  0  0  0  0
  -21.1617   -3.5048  -23.9885 C   0  0  2  0  0  0  0  0  0  0  0  0
  -19.8499   -4.8419  -25.8395 C   0  0  0  0  0  0  0  0  0  0  0  0
  -24.4579   -4.4732  -24.1523 C   0  0  0  0  0  0  0  0  0  0  0  0
  -20.2027   -3.9246  -22.8809 C   0  0  0  0  0  0  0  0  0  0  0  0
  -22.7618   -3.3724  -32.1193 N   0  0  0  0  0  0  0  0  0  0  0  0
  -17.5997   -3.8652  -26.1215 N   0  0  0  0  0  0  0  0  0  0  0  0
  -17.7825   -5.9351  -25.0394 N   0  0  0  0  0  0  0  0  0  0  0  0
  -22.1342   -3.7917  -26.2135 N   0  0  3  0  0  0  0  0  0  0  0  0
  -21.0385   -4.9899  -32.6799 N   0  0  0  0  0  0  0  0  0  0  0  0
  -19.4158   -2.5135  -26.4274 O   0  0  0  0  0  0  0  0  0  0  0  0
  -19.7967   -6.7552  -24.3319 O   0  0  0  0  0  0  0  0  0  0  0  0
  -15.7267   -5.1026  -25.6361 O   0  0  0  0  0  0  0  0  0  0  0  0
  -19.8158   -7.0073  -36.0972 O   0  0  0  0  0  0  0  0  0  0  0  0
  -23.2402   -2.8783  -30.9113 O   0  0  0  0  0  0  0  0  0  0  0  0
  -22.4485   -3.4311  -23.3622 O   0  0  0  0  0  0  0  0  0  0  0  0
  -23.6282   -2.2718  -28.1748 F   0  0  0  0  0  0  0  0  0  0  0  0
  -19.2404   -6.7153  -34.7427 S   0  0  0  0  0  0  0  0  0  0  0  0
  -20.0824   -5.7516  -29.8599 H   0  0  0  0  0  0  0  0  0  0  0  0
  -20.5598   -6.5681  -26.9932 H   0  0  0  0  0  0  0  0  0  0  0  0
  -19.1342   -5.7850  -27.6704 H   0  0  0  0  0  0  0  0  0  0  0  0
  -21.1510   -6.7366  -31.5123 H   0  0  0  0  0  0  0  0  0  0  0  0
  -19.5073   -6.2181  -31.8985 H   0  0  0  0  0  0  0  0  0  0  0  0
  -20.7521   -3.3752  -34.0119 H   0  0  0  0  0  0  0  0  0  0  0  0
  -21.5041   -4.8064  -34.7224 H   0  0  0  0  0  0  0  0  0  0  0  0
  -24.0606   -2.9997  -26.3365 H   0  0  0  0  0  0  0  0  0  0  0  0
  -22.9330   -1.8228  -25.7100 H   0  0  0  0  0  0  0  0  0  0  0  0
  -20.2686   -8.2766  -33.2109 H   0  0  0  0  0  0  0  0  0  0  0  0
  -21.4542   -7.2372  -34.0184 H   0  0  0  0  0  0  0  0  0  0  0  0
  -19.0923   -4.4326  -35.4241 H   0  0  0  0  0  0  0  0  0  0  0  0
  -18.5770   -4.6208  -33.7405 H   0  0  0  0  0  0  0  0  0  0  0  0
  -21.7506   -5.3596  -24.9216 H   0  0  0  0  0  0  0  0  0  0  0  0
  -24.1742   -2.3805  -23.8165 H   0  0  0  0  0  0  0  0  0  0  0  0
  -20.8802   -2.4782  -24.2866 H   0  0  0  0  0  0  0  0  0  0  0  0
  -23.9368   -5.3486  -24.5403 H   0  0  0  0  0  0  0  0  0  0  0  0
  -25.3636   -4.3129  -24.7374 H   0  0  0  0  0  0  0  0  0  0  0  0
  -24.7356   -4.6583  -23.1144 H   0  0  0  0  0  0  0  0  0  0  0  0
  -20.4373   -4.9357  -22.5481 H   0  0  0  0  0  0  0  0  0  0  0  0
  -20.2908   -3.2441  -22.0340 H   0  0  0  0  0  0  0  0  0  0  0  0
  -19.1766   -3.9019  -23.2480 H   0  0  0  0  0  0  0  0  0  0  0  0
  -17.0082   -3.1468  -26.5278 H   0  0  0  0  0  0  0  0  0  0  0  0
  -17.3208   -6.7084  -24.5693 H   0  0  0  0  0  0  0  0  0  0  0  0
  1  2  2  0  0  0  0
  1  3  1  0  0  0  0
  2  5  1  0  0  0  0
  2  7  1  0  0  0  0
  3  4  2  0  0  0  0
  3 11  1  0  0  0  0
  4  6  1  0  0  0  0
  4 26  1  0  0  0  0
  5  6  2  0  0  0  0
  5 32  1  0  0  0  0
  6 34  1  0  0  0  0
  7 23  2  0  0  0  0
  7 27  1  0  0  0  0
  8 20  1  0  0  0  0
  8 24  1  0  0  0  0
  8 28  2  0  0  0  0
  9 20  1  0  0  0  0
  9 25  1  0  0  0  0
  9 29  2  0  0  0  0
 10 24  1  0  0  0  0
 10 25  1  0  0  0  0
 10 30  2  0  0  0  0
 11 20  1  0  0  0  0
 12 15  1  0  0  0  0
 12 27  1  0  0  0  0
 13 16  1  0  0  0  0
 13 27  1  0  0  0  0
 14 18  1  0  0  0  0
 14 26  1  0  0  0  0
 15 35  1  0  0  0  0
 16 35  1  0  0  0  0
 17 19  1  0  0  0  0
 17 20  1  0  0  0  0
 17 26  1  0  0  0  0
 18 21  1  0  0  0  0
 18 33  1  0  0  0  0
 19 22  1  0  0  0  0
 19 33  1  0  0  0  0
 23 32  1  0  0  0  0
 31 35  2  0  0  0  0
  1 36  1  0  0  0  0
 11 37  1  0  0  0  0
 11 38  1  0  0  0  0
 12 39  1  0  0  0  0
 12 40  1  0  0  0  0
 13 41  1  0  0  0  0
 13 42  1  0  0  0  0
 14 43  1  0  0  0  0
 14 44  1  0  0  0  0
 15 45  1  0  0  0  0
 15 46  1  0  0  0  0
 16 47  1  0  0  0  0
 16 48  1  0  0  0  0
 17 49  1  0  0  0  0
 18 50  1  0  0  0  0
 19 51  1  0  0  0  0
 21 52  1  0  0  0  0
 21 53  1  0  0  0  0
 21 54  1  0  0  0  0
 22 55  1  0  0  0  0
 22 56  1  0  0  0  0
 22 57  1  0  0  0  0
 24 58  1  0  0  0  0
 25 59  1  0  0  0  0
M  END
> <SMILES>
CC1CN2C(C(C)O1)C1(Cc3cc4c(noc4c(c32)F)N2CCS(=O)CC2)C(=O)NC(=O)NC1=O

> <FORMATTED_ID>
H3D-003794

> <MOLFORMULA>
C22H24FN5O6S

> <Exact Mass>
505.14

> <XLogP>
-1.38

> <TPSA_NOPS>
153.6

> <s_m_source_file>
ligprep_h3d.sdf

> <i_m_source_file_index>
383

> <i_lp_mmshare_version>
55123

> <i_f3d_flags>
0

> <s_epik_input>
Tz1DMVtOSF1DKD1PKVtOSF1DKD1PKUMxMltDQEBIXTNOKFtDSDJdW0NAQEhdKFtDSDNdKU9bQ0BIXTNbQ0gzXSljNGMoW0NIMl0yKVtjSF1jNWMoYzRGKW9uYzVONltDSDJdW0NIMl1TKD1PKVtDSDJdW0NIMl02

> <s_epik_cmdline>
J2VwaWtfcHl0aG9uJywgJy1waHQnLCAnMC41JywgJy1waCcsICc3LjUnLCAnLXRuJywgJzgnLCAnLW1hJywgJzUwMCcsICctaW1hZScsICc8aW5maWxlLm1hZT4nLCAnLW9tYWUnLCAnPG91dGZpbGUubWFlPic=

> <r_lp_tautomer_probability>
1

> <r_epik_Ionization_Penalty>
0.369125

> <r_epik_Ionization_Penalty_Charging>
0

> <r_epik_Ionization_Penalty_Neutral>
0.369125

> <r_epik_State_Penalty>
0.366447

> <r_epik_Charging_Adjusted_Penalty>
0.366447

> <i_epik_Tot_Q>
0

> <i_epik_Tot_abs_Q>
0

> <s_lp_Force_Field>
S-OPLS

> <r_lp_Energy>
40.7097

> <b_lp_Chiralities_Consistent>
1

> <s_lp_Variant>
ligprep_h3d.sdf:383-1

> <ROCS_ShapeQuery>
_7L13

> <ROCS_TanimotoCombo>
0.783 

> <ROCS_ShapeTanimoto>
0.649 

> <ROCS_ColorTanimoto>
0.134 

> <ROCS_RefTversky>
0.780 

> <ROCS_RefColorTversky>
0.294 

> <ROCS_RefTverskyCombo>
1.075 

> <ROCS_FitTversky>
0.794 

> <ROCS_FitColorTversky>
0.197 

> <ROCS_FitTverskyCombo>
0.992 

> <ROCS_ColorScore>
-2.722

> <ROCS_Overlap>
1294.676

> <ROCS_Rank>
356                 

$$$$
ligprep_h3d.sdf:1212_1690
  -OEChem-08212117123D

 69 72  0     1  0  0  0  0  0999 V2000
  -20.8542   -6.1810  -32.1165 C   0  0  0  0  0  0  0  0  0  0  0  0
  -20.4281   -6.6377  -33.3588 C   0  0  0  0  0  0  0  0  0  0  0  0
  -20.0261   -6.5386  -37.8683 C   0  0  0  0  0  0  0  0  0  0  0  0
  -19.4233   -7.5804  -37.1382 C   0  0  0  0  0  0  0  0  0  0  0  0
  -21.9262   -4.3618  -33.2109 C   0  0  0  0  0  0  0  0  0  0  0  0
  -20.6331   -5.7579  -36.9151 C   0  0  0  0  0  0  0  0  0  0  0  0
  -21.6179   -5.0221  -32.0325 C   0  0  0  0  0  0  0  0  0  0  0  0
  -20.7899   -5.9051  -34.4778 C   0  0  0  0  0  0  0  0  0  0  0  0
  -20.1025   -4.5803  -26.4251 C   0  0  0  0  0  0  0  0  0  0  0  0
  -21.0957   -4.3482  -28.4242 C   0  0  0  0  0  0  0  0  0  0  0  0
  -22.3413   -4.5037  -26.5638 C   0  0  0  0  0  0  0  0  0  0  0  0
  -23.4022   -3.3160  -23.9280 C   0  0  0  0  0  0  0  0  0  0  0  0
  -17.4763   -4.6571  -23.8301 C   0  0  0  0  0  0  0  0  0  0  0  0
  -18.9466   -4.8365  -24.2115 C   0  0  0  0  0  0  0  0  0  0  0  0
  -17.6018   -4.6862  -26.2209 C   0  0  0  0  0  0  0  0  0  0  0  0
  -16.7550   -5.1872  -25.0562 C   0  0  1  0  0  0  0  0  0  0  0  0
  -25.2816   -5.3657  -22.6147 C   0  0  0  0  0  0  0  0  0  0  0  0
  -26.2595   -4.1368  -24.5474 C   0  0  0  0  0  0  0  0  0  0  0  0
  -25.5407   -6.5173  -24.8199 C   0  0  0  0  0  0  0  0  0  0  0  0
  -21.7518   -2.2053  -22.4538 C   0  0  0  0  0  0  0  0  0  0  0  0
  -22.0927   -4.5027  -30.7063 C   0  0  0  0  0  0  0  0  0  0  0  0
  -23.7693   -4.6748  -24.5249 C   0  0  1  0  0  0  0  0  0  0  0  0
  -25.1942   -5.1761  -24.1451 C   0  0  0  0  0  0  0  0  0  0  0  0
  -21.5304   -4.7749  -34.4358 N   0  0  0  0  0  0  0  0  0  0  0  0
  -19.6286   -7.4740  -35.8227 N   0  0  0  0  0  0  0  0  0  0  0  0
  -19.9381   -4.4492  -27.7515 N   0  0  0  0  0  0  0  0  0  0  0  0
  -21.2698   -4.6154  -25.7622 N   0  0  0  0  0  0  0  0  0  0  0  0
  -22.3316   -4.3675  -27.8995 N   0  0  0  0  0  0  0  0  0  0  0  0
  -20.3670   -6.3560  -35.7186 N   0  0  0  0  0  0  0  0  0  0  0  0
  -18.9560   -4.6877  -25.6673 N   0  0  0  0  0  0  0  0  0  0  0  0
  -21.0051   -4.2096  -29.8261 N   0  0  0  0  0  0  0  0  0  0  0  0
  -23.5830   -4.5322  -25.9501 N   0  0  0  0  0  0  0  0  0  0  0  0
  -22.2647   -3.3692  -23.1360 N   0  0  0  0  0  0  0  0  0  0  0  0
  -15.3769   -4.6734  -25.1321 N   0  3  0  0  0  0  0  0  0  0  0  0
  -24.0678   -2.2999  -24.1220 O   0  0  0  0  0  0  0  0  0  0  0  0
  -20.5876   -6.7337  -31.2196 H   0  0  0  0  0  0  0  0  0  0  0  0
  -19.8324   -7.5422  -33.4311 H   0  0  0  0  0  0  0  0  0  0  0  0
  -20.0208   -6.3757  -38.9359 H   0  0  0  0  0  0  0  0  0  0  0  0
  -18.8428   -8.4130  -37.5095 H   0  0  0  0  0  0  0  0  0  0  0  0
  -22.5191   -3.4524  -33.2081 H   0  0  0  0  0  0  0  0  0  0  0  0
  -21.2151   -4.8490  -36.9930 H   0  0  0  0  0  0  0  0  0  0  0  0
  -17.2649   -3.5926  -23.6693 H   0  0  0  0  0  0  0  0  0  0  0  0
  -17.2163   -5.2049  -22.9195 H   0  0  0  0  0  0  0  0  0  0  0  0
  -19.3073   -5.8422  -23.9559 H   0  0  0  0  0  0  0  0  0  0  0  0
  -19.5796   -4.0986  -23.7009 H   0  0  0  0  0  0  0  0  0  0  0  0
  -17.3287   -3.6639  -26.5232 H   0  0  0  0  0  0  0  0  0  0  0  0
  -17.5210   -5.3428  -27.0980 H   0  0  0  0  0  0  0  0  0  0  0  0
  -16.6989   -6.2817  -25.0451 H   0  0  0  0  0  0  0  0  0  0  0  0
  -24.5444   -6.0973  -22.2654 H   0  0  0  0  0  0  0  0  0  0  0  0
  -26.2734   -5.7132  -22.3057 H   0  0  0  0  0  0  0  0  0  0  0  0
  -25.0893   -4.4241  -22.0873 H   0  0  0  0  0  0  0  0  0  0  0  0
  -26.2477   -3.9574  -25.6289 H   0  0  0  0  0  0  0  0  0  0  0  0
  -26.0875   -3.1707  -24.0615 H   0  0  0  0  0  0  0  0  0  0  0  0
  -27.2659   -4.4782  -24.2804 H   0  0  0  0  0  0  0  0  0  0  0  0
  -25.4914   -6.4302  -25.9117 H   0  0  0  0  0  0  0  0  0  0  0  0
  -26.5533   -6.8483  -24.5659 H   0  0  0  0  0  0  0  0  0  0  0  0
  -24.8431   -7.3090  -24.5279 H   0  0  0  0  0  0  0  0  0  0  0  0
  -21.0359   -1.6833  -23.1058 H   0  0  0  0  0  0  0  0  0  0  0  0
  -22.5834   -1.5289  -22.2071 H   0  0  0  0  0  0  0  0  0  0  0  0
  -21.2452   -2.5164  -21.5283 H   0  0  0  0  0  0  0  0  0  0  0  0
  -22.6769   -3.5853  -30.8376 H   0  0  0  0  0  0  0  0  0  0  0  0
  -22.7399   -5.2318  -30.2075 H   0  0  0  0  0  0  0  0  0  0  0  0
  -23.0229   -5.4130  -24.2049 H   0  0  0  0  0  0  0  0  0  0  0  0
  -20.1291   -3.8917  -30.1943 H   0  0  0  0  0  0  0  0  0  0  0  0
  -24.4082   -4.4497  -26.5329 H   0  0  0  0  0  0  0  0  0  0  0  0
  -21.7778   -4.2545  -23.0329 H   0  0  0  0  0  0  0  0  0  0  0  0
  -15.3608   -3.6512  -25.2529 H   0  0  0  0  0  0  0  0  0  0  0  0
  -14.8643   -5.0842  -25.9251 H   0  0  0  0  0  0  0  0  0  0  0  0
  -14.8453   -4.8901  -24.2774 H   0  0  0  0  0  0  0  0  0  0  0  0
  1  2  1  0  0  0  0
  1  7  2  0  0  0  0
  2  8  2  0  0  0  0
  3  4  1  0  0  0  0
  3  6  2  0  0  0  0
  4 25  2  0  0  0  0
  5  7  1  0  0  0  0
  5 24  2  0  0  0  0
  6 29  1  0  0  0  0
  7 21  1  0  0  0  0
  8 24  1  0  0  0  0
  8 29  1  0  0  0  0
  9 26  1  0  0  0  0
  9 27  2  0  0  0  0
  9 30  1  0  0  0  0
 10 26  2  0  0  0  0
 10 28  1  0  0  0  0
 10 31  1  0  0  0  0
 11 27  1  0  0  0  0
 11 28  2  0  0  0  0
 11 32  1  0  0  0  0
 12 22  1  0  0  0  0
 12 33  1  0  0  0  0
 12 35  2  0  0  0  0
 13 14  1  0  0  0  0
 13 16  1  0  0  0  0
 14 30  1  0  0  0  0
 15 16  1  0  0  0  0
 15 30  1  0  0  0  0
 16 34  1  0  0  0  0
 17 23  1  0  0  0  0
 18 23  1  0  0  0  0
 19 23  1  0  0  0  0
 20 33  1  0  0  0  0
 21 31  1  0  0  0  0
 22 23  1  0  0  0  0
 22 32  1  0  0  0  0
 25 29  1  0  0  0  0
  1 36  1  0  0  0  0
  2 37  1  0  0  0  0
  3 38  1  0  0  0  0
  4 39  1  0  0  0  0
  5 40  1  0  0  0  0
  6 41  1  0  0  0  0
 13 42  1  0  0  0  0
 13 43  1  0  0  0  0
 14 44  1  0  0  0  0
 14 45  1  0  0  0  0
 15 46  1  0  0  0  0
 15 47  1  0  0  0  0
 16 48  1  0  0  0  0
 17 49  1  0  0  0  0
 17 50  1  0  0  0  0
 17 51  1  0  0  0  0
 18 52  1  0  0  0  0
 18 53  1  0  0  0  0
 18 54  1  0  0  0  0
 19 55  1  0  0  0  0
 19 56  1  0  0  0  0
 19 57  1  0  0  0  0
 20 58  1  0  0  0  0
 20 59  1  0  0  0  0
 20 60  1  0  0  0  0
 21 61  1  0  0  0  0
 21 62  1  0  0  0  0
 22 63  1  0  0  0  0
 31 64  1  0  0  0  0
 32 65  1  0  0  0  0
 33 66  1  0  0  0  0
 34 67  1  0  0  0  0
 34 68  1  0  0  0  0
 34 69  1  0  0  0  0
M  CHG  1  34   1
M  END
> <SMILES>
CNC(=O)[C@H](Nc1nc(nc(n1)N1CC[C@H](N)C1)NCc1ccc(nc1)-n1cccn1)C(C)(C)C

> <FORMATTED_ID>
H3D-008339

> <MOLFORMULA>
C23H33N11O

> <Exact Mass>
479.29

> <XLogP>
1.74

> <TPSA_NOPS>
151.8

> <s_m_source_file>
ligprep_h3d.sdf

> <i_m_source_file_index>
1212

> <i_lp_mmshare_version>
55123

> <i_f3d_flags>
0

> <s_epik_input>
W0NIM11bTkhdQyg9TylbQ0BASF0oQyhbQ0gzXSkoW0NIM10pW0NIM10pW05IXWMxbmMobmMobjEpTjJbQ0gyXVtDSDJdW0NASF0oW05IMl0pW0NIMl0yKVtOSF1bQ0gyXWMzW2NIXVtjSF1jKG5bY0hdMyktbjRbY0hdW2NIXVtjSF1uNA==

> <s_epik_cmdline>
J2VwaWtfcHl0aG9uJywgJy1waHQnLCAnMC41JywgJy1waCcsICc3LjUnLCAnLXRuJywgJzgnLCAnLW1hJywgJzUwMCcsICctaW1hZScsICc8aW5maWxlLm1hZT4nLCAnLW9tYWUnLCAnPG91dGZpbGUubWFlPic=

> <r_lp_tautomer_probability>
1

> <r_epik_Ionization_Penalty>
0.00510466

> <r_epik_Ionization_Penalty_Charging>
0.00314599

> <r_epik_Ionization_Penalty_Neutral>
0.00195867

> <r_epik_State_Penalty>
-0

> <r_epik_Charging_Adjusted_Penalty>
0.00314599

> <i_epik_Tot_Q>
1

> <i_epik_Tot_abs_Q>
1

> <s_lp_Force_Field>
S-OPLS

> <r_lp_Energy>
21.505

> <b_lp_Chiralities_Consistent>
1

> <s_lp_Variant>
ligprep_h3d.sdf:1212-1

> <ROCS_ShapeQuery>
_7L13

> <ROCS_TanimotoCombo>
0.705 

> <ROCS_ShapeTanimoto>
0.657 

> <ROCS_ColorTanimoto>
0.048 

> <ROCS_RefTversky>
0.780 

> <ROCS_RefColorTversky>
0.123 

> <ROCS_RefTverskyCombo>
0.903 

> <ROCS_FitTversky>
0.806 

> <ROCS_FitColorTversky>
0.073 

> <ROCS_FitTverskyCombo>
0.879 

> <ROCS_ColorScore>
-1.151

> <ROCS_Overlap>
1293.489

> <ROCS_Rank>
357                 

$$$$
ligprep_h3d.sdf:729_343
  -OEChem-08212117123D

 61 66  0     1  0  0  0  0  0999 V2000
  -20.9432   -5.1549  -29.4862 C   0  0  0  0  0  0  0  0  0  0  0  0
  -21.7265   -4.4239  -30.3815 C   0  0  0  0  0  0  0  0  0  0  0  0
  -21.0682   -4.8934  -28.0999 C   0  0  0  0  0  0  0  0  0  0  0  0
  -21.9862   -3.9486  -27.5842 C   0  0  0  0  0  0  0  0  0  0  0  0
  -22.5934   -3.4807  -29.8753 C   0  0  0  0  0  0  0  0  0  0  0  0
  -22.7530   -3.2095  -28.5161 C   0  0  0  0  0  0  0  0  0  0  0  0
  -21.9171   -4.3420  -31.7733 C   0  0  0  0  0  0  0  0  0  0  0  0
  -18.9312   -3.7640  -26.1905 C   0  0  0  0  0  0  0  0  0  0  0  0
  -19.2419   -6.0164  -24.9755 C   0  0  0  0  0  0  0  0  0  0  0  0
  -16.9915   -5.2290  -25.6780 C   0  0  0  0  0  0  0  0  0  0  0  0
  -20.1933   -5.6855  -27.1652 C   0  0  0  0  0  0  0  0  0  0  0  0
  -20.5879   -6.9920  -33.9638 C   0  0  0  0  0  0  0  0  0  0  0  0
  -21.2672   -6.5986  -32.6538 C   0  0  0  0  0  0  0  0  0  0  0  0
  -20.3447   -4.6253  -33.7080 C   0  0  0  0  0  0  0  0  0  0  0  0
  -23.0797   -2.7903  -25.6748 C   0  0  0  0  0  0  0  0  0  0  0  0
  -19.5826   -5.8661  -34.1870 C   0  0  2  0  0  0  0  0  0  0  0  0
  -21.2197   -4.4337  -25.2260 C   0  0  2  0  0  0  0  0  0  0  0  0
  -23.4538   -3.0851  -24.2195 C   0  0  1  0  0  0  0  0  0  0  0  0
  -21.0756   -3.4772  -24.0065 C   0  0  2  0  0  0  0  0  0  0  0  0
  -19.8796   -4.9259  -25.8521 C   0  0  0  0  0  0  0  0  0  0  0  0
  -24.4245   -4.2572  -24.0875 C   0  0  0  0  0  0  0  0  0  0  0  0
  -20.1203   -3.9285  -22.9081 C   0  0  0  0  0  0  0  0  0  0  0  0
  -19.1103   -5.7619  -35.6265 C   0  0  0  0  0  0  0  0  0  0  0  0
  -22.8271   -3.4217  -32.1070 N   0  0  0  0  0  0  0  0  0  0  0  0
  -17.5833   -4.0866  -26.1973 N   0  0  0  0  0  0  0  0  0  0  0  0
  -17.8626   -6.1196  -25.0670 N   0  0  0  0  0  0  0  0  0  0  0  0
  -22.1070   -3.7538  -26.2062 N   0  0  3  0  0  0  0  0  0  0  0  0
  -21.2180   -5.1389  -32.6549 N   0  0  0  0  0  0  0  0  0  0  0  0
  -19.3247   -2.6391  -26.4987 O   0  0  0  0  0  0  0  0  0  0  0  0
  -19.9060   -6.8074  -24.3042 O   0  0  0  0  0  0  0  0  0  0  0  0
  -15.7749   -5.4196  -25.7200 O   0  0  0  0  0  0  0  0  0  0  0  0
  -23.2523   -2.8759  -30.9014 O   0  0  0  0  0  0  0  0  0  0  0  0
  -22.3434   -3.3165  -23.3581 O   0  0  0  0  0  0  0  0  0  0  0  0
  -18.9102   -7.0692  -36.1384 O   0  0  0  0  0  0  0  0  0  0  0  0
  -23.5503   -2.1913  -28.1720 F   0  0  0  0  0  0  0  0  0  0  0  0
  -20.2438   -5.9040  -29.8465 H   0  0  0  0  0  0  0  0  0  0  0  0
  -20.7100   -6.6319  -26.9542 H   0  0  0  0  0  0  0  0  0  0  0  0
  -19.2557   -5.9465  -27.6749 H   0  0  0  0  0  0  0  0  0  0  0  0
  -20.1060   -7.9722  -33.8989 H   0  0  0  0  0  0  0  0  0  0  0  0
  -21.3271   -7.0245  -34.7736 H   0  0  0  0  0  0  0  0  0  0  0  0
  -22.2935   -6.9803  -32.6089 H   0  0  0  0  0  0  0  0  0  0  0  0
  -20.7076   -6.9854  -31.7936 H   0  0  0  0  0  0  0  0  0  0  0  0
  -19.6563   -3.8601  -33.3306 H   0  0  0  0  0  0  0  0  0  0  0  0
  -20.9533   -4.1873  -34.5089 H   0  0  0  0  0  0  0  0  0  0  0  0
  -23.9870   -2.8547  -26.3105 H   0  0  0  0  0  0  0  0  0  0  0  0
  -22.7817   -1.7321  -25.7311 H   0  0  0  0  0  0  0  0  0  0  0  0
  -18.7141   -6.0269  -33.5342 H   0  0  0  0  0  0  0  0  0  0  0  0
  -21.7882   -5.3140  -24.8877 H   0  0  0  0  0  0  0  0  0  0  0  0
  -24.0148   -2.1778  -23.8030 H   0  0  0  0  0  0  0  0  0  0  0  0
  -20.7417   -2.4750  -24.3322 H   0  0  0  0  0  0  0  0  0  0  0  0
  -23.9621   -5.1690  -24.4659 H   0  0  0  0  0  0  0  0  0  0  0  0
  -25.3310   -4.0571  -24.6590 H   0  0  0  0  0  0  0  0  0  0  0  0
  -24.6916   -4.4044  -23.0408 H   0  0  0  0  0  0  0  0  0  0  0  0
  -20.4058   -4.9172  -22.5490 H   0  0  0  0  0  0  0  0  0  0  0  0
  -20.1524   -3.2266  -22.0748 H   0  0  0  0  0  0  0  0  0  0  0  0
  -19.1021   -3.9727  -23.2947 H   0  0  0  0  0  0  0  0  0  0  0  0
  -18.1677   -5.2120  -35.6772 H   0  0  0  0  0  0  0  0  0  0  0  0
  -19.8602   -5.2522  -36.2357 H   0  0  0  0  0  0  0  0  0  0  0  0
  -16.9598   -3.4121  -26.6303 H   0  0  0  0  0  0  0  0  0  0  0  0
  -17.4367   -6.9083  -24.5888 H   0  0  0  0  0  0  0  0  0  0  0  0
  -18.6095   -6.9707  -37.0572 H   0  0  0  0  0  0  0  0  0  0  0  0
  1  2  2  0  0  0  0
  1  3  1  0  0  0  0
  2  5  1  0  0  0  0
  2  7  1  0  0  0  0
  3  4  2  0  0  0  0
  3 11  1  0  0  0  0
  4  6  1  0  0  0  0
  4 27  1  0  0  0  0
  5  6  2  0  0  0  0
  5 32  1  0  0  0  0
  6 35  1  0  0  0  0
  7 24  2  0  0  0  0
  7 28  1  0  0  0  0
  8 20  1  0  0  0  0
  8 25  1  0  0  0  0
  8 29  2  0  0  0  0
  9 20  1  0  0  0  0
  9 26  1  0  0  0  0
  9 30  2  0  0  0  0
 10 25  1  0  0  0  0
 10 26  1  0  0  0  0
 10 31  2  0  0  0  0
 11 20  1  0  0  0  0
 12 13  1  0  0  0  0
 12 16  1  0  0  0  0
 13 28  1  0  0  0  0
 14 16  1  0  0  0  0
 14 28  1  0  0  0  0
 15 18  1  0  0  0  0
 15 27  1  0  0  0  0
 16 23  1  0  0  0  0
 17 19  1  0  0  0  0
 17 20  1  0  0  0  0
 17 27  1  0  0  0  0
 18 21  1  0  0  0  0
 18 33  1  0  0  0  0
 19 22  1  0  0  0  0
 19 33  1  0  0  0  0
 23 34  1  0  0  0  0
 24 32  1  0  0  0  0
  1 36  1  0  0  0  0
 11 37  1  0  0  0  0
 11 38  1  0  0  0  0
 12 39  1  0  0  0  0
 12 40  1  0  0  0  0
 13 41  1  0  0  0  0
 13 42  1  0  0  0  0
 14 43  1  0  0  0  0
 14 44  1  0  0  0  0
 15 45  1  0  0  0  0
 15 46  1  0  0  0  0
 16 47  1  0  0  0  0
 17 48  1  0  0  0  0
 18 49  1  0  0  0  0
 19 50  1  0  0  0  0
 21 51  1  0  0  0  0
 21 52  1  0  0  0  0
 21 53  1  0  0  0  0
 22 54  1  0  0  0  0
 22 55  1  0  0  0  0
 22 56  1  0  0  0  0
 23 57  1  0  0  0  0
 23 58  1  0  0  0  0
 25 59  1  0  0  0  0
 26 60  1  0  0  0  0
 34 61  1  0  0  0  0
M  END
> <SMILES>
C[C@@H]1CN2[C@H]([C@H](C)O1)C1(Cc3cc4c(noc4c(c32)F)N2CC[C@@H](CO)C2)C(=O)NC(=O)NC1=O

> <FORMATTED_ID>
H3D-004959

> <MOLFORMULA>
C23H26FN5O6

> <Exact Mass>
487.19

> <XLogP>
0.06

> <TPSA_NOPS>
137.5

> <s_m_source_file>
ligprep_h3d.sdf

> <i_m_source_file_index>
729

> <i_lp_mmshare_version>
55123

> <i_f3d_flags>
0

> <s_epik_input>
Tz1DMVtOSF1DKD1PKVtOSF1DKD1PKUMxMltDQEBIXTNOKFtDSDJdW0NAQEhdKFtDSDNdKU9bQ0BIXTNbQ0gzXSljNGMoW0NIMl0yKVtjSF1jNWMoYzRGKW9uYzVONltDSDJdW0NIMl1bQ0BIXShbQ0gyXTYpW0NIMl1bT0hd

> <s_epik_cmdline>
J2VwaWtfcHl0aG9uJywgJy1waHQnLCAnMC41JywgJy1waCcsICc3LjUnLCAnLXRuJywgJzgnLCAnLW1hJywgJzUwMCcsICctaW1hZScsICc8aW5maWxlLm1hZT4nLCAnLW9tYWUnLCAnPG91dGZpbGUubWFlPic=

> <r_lp_tautomer_probability>
1

> <r_epik_Ionization_Penalty>
0.369132

> <r_epik_Ionization_Penalty_Charging>
0

> <r_epik_Ionization_Penalty_Neutral>
0.369132

> <r_epik_State_Penalty>
0.366447

> <r_epik_Charging_Adjusted_Penalty>
0.366447

> <i_epik_Tot_Q>
0

> <i_epik_Tot_abs_Q>
0

> <s_lp_Force_Field>
S-OPLS

> <r_lp_Energy>
42.6704

> <b_lp_Chiralities_Consistent>
1

> <s_lp_Variant>
ligprep_h3d.sdf:729-1

> <ROCS_ShapeQuery>
_7L13

> <ROCS_TanimotoCombo>
0.773 

> <ROCS_ShapeTanimoto>
0.643 

> <ROCS_ColorTanimoto>
0.130 

> <ROCS_RefTversky>
0.780 

> <ROCS_RefColorTversky>
0.297 

> <ROCS_RefTverskyCombo>
1.077 

> <ROCS_FitTversky>
0.785 

> <ROCS_FitColorTversky>
0.187 

> <ROCS_FitTverskyCombo>
0.972 

> <ROCS_ColorScore>
-2.759

> <ROCS_Overlap>
1295.287

> <ROCS_Rank>
358                 

$$$$
ligprep_h3d.sdf:2456_1615
  -OEChem-08212117123D

 60 64  0     0  0  0  0  0  0999 V2000
  -19.1668   -5.9751  -24.9469 C   0  0  0  0  0  0  0  0  0  0  0  0
  -25.5714   -4.6107  -23.6397 C   0  0  0  0  0  0  0  0  0  0  0  0
  -25.8213   -4.0197  -24.8739 C   0  0  0  0  0  0  0  0  0  0  0  0
  -20.1479   -6.2989  -32.8529 C   0  0  0  0  0  0  0  0  0  0  0  0
  -19.9872   -4.7357  -34.6880 C   0  0  0  0  0  0  0  0  0  0  0  0
  -24.2938   -5.0754  -23.3235 C   0  0  0  0  0  0  0  0  0  0  0  0
  -24.8034   -3.8618  -25.8226 C   0  0  0  0  0  0  0  0  0  0  0  0
  -19.6323   -7.3075  -33.6668 C   0  0  0  0  0  0  0  0  0  0  0  0
  -19.4715   -5.7443  -35.5019 C   0  0  0  0  0  0  0  0  0  0  0  0
  -20.3254   -5.0130  -33.3634 C   0  0  0  0  0  0  0  0  0  0  0  0
  -23.2617   -4.9284  -24.2682 C   0  0  0  0  0  0  0  0  0  0  0  0
  -23.5134   -4.3086  -25.4936 C   0  0  0  0  0  0  0  0  0  0  0  0
  -19.2941   -7.0302  -34.9913 C   0  0  0  0  0  0  0  0  0  0  0  0
  -21.3984   -5.0024  -25.3196 C   0  0  0  0  0  0  0  0  0  0  0  0
  -20.6224   -4.0158  -27.8101 C   0  0  0  0  0  0  0  0  0  0  0  0
  -20.0630   -5.2414  -25.7790 C   0  0  0  0  0  0  0  0  0  0  0  0
  -19.6839   -4.7759  -26.9908 C   0  0  0  0  0  0  0  0  0  0  0  0
  -21.8866   -3.7771  -27.4034 C   0  0  0  0  0  0  0  0  0  0  0  0
  -22.4302   -4.7472  -29.8562 C   0  0  0  0  0  0  0  0  0  0  0  0
  -22.7420   -2.3256  -30.4961 C   0  0  0  0  0  0  0  0  0  0  0  0
  -22.7303   -5.1570  -31.2911 C   0  0  0  0  0  0  0  0  0  0  0  0
  -23.0399   -2.7501  -31.9272 C   0  0  0  0  0  0  0  0  0  0  0  0
  -23.1017   -3.4218  -29.4909 C   0  0  0  0  0  0  0  0  0  0  0  0
  -18.4651   -7.6619  -37.1290 C   0  0  0  0  0  0  0  0  0  0  0  0
  -20.8794   -3.9279  -32.4879 C   0  0  0  0  0  0  0  0  0  0  0  0
  -18.3230   -4.9563  -27.6094 C   0  0  0  0  0  0  0  0  0  0  0  0
  -18.4379   -6.5721  -24.2700 N   0  0  0  0  0  0  0  0  0  0  0  0
  -21.9628   -5.3404  -24.1798 N   0  0  0  0  0  0  0  0  0  0  0  0
  -22.2851   -4.3075  -26.1547 N   0  0  0  0  0  0  0  0  0  0  0  0
  -22.7488   -3.0219  -28.1496 N   0  0  0  0  0  0  0  0  0  0  0  0
  -22.3606   -4.0568  -32.2549 N   0  3  0  0  0  0  0  0  0  0  0  0
  -18.7897   -8.0142  -35.7850 O   0  0  0  0  0  0  0  0  0  0  0  0
  -18.2674   -4.3613  -28.8151 F   0  0  0  0  0  0  0  0  0  0  0  0
  -17.3698   -4.4144  -26.8292 F   0  0  0  0  0  0  0  0  0  0  0  0
  -18.0403   -6.2620  -27.7718 F   0  0  0  0  0  0  0  0  0  0  0  0
  -26.3781   -4.7224  -22.9205 H   0  0  0  0  0  0  0  0  0  0  0  0
  -26.8258   -3.6770  -25.1098 H   0  0  0  0  0  0  0  0  0  0  0  0
  -20.4087   -6.5239  -31.8222 H   0  0  0  0  0  0  0  0  0  0  0  0
  -20.1222   -3.7366  -35.0944 H   0  0  0  0  0  0  0  0  0  0  0  0
  -24.1061   -5.5519  -22.3661 H   0  0  0  0  0  0  0  0  0  0  0  0
  -25.0446   -3.4168  -26.7793 H   0  0  0  0  0  0  0  0  0  0  0  0
  -19.4960   -8.3073  -33.2631 H   0  0  0  0  0  0  0  0  0  0  0  0
  -19.2097   -5.5219  -36.5326 H   0  0  0  0  0  0  0  0  0  0  0  0
  -20.2633   -3.6230  -28.7576 H   0  0  0  0  0  0  0  0  0  0  0  0
  -22.7955   -5.5257  -29.1805 H   0  0  0  0  0  0  0  0  0  0  0  0
  -21.3503   -4.6840  -29.7061 H   0  0  0  0  0  0  0  0  0  0  0  0
  -21.6881   -2.0509  -30.4020 H   0  0  0  0  0  0  0  0  0  0  0  0
  -23.3206   -1.4263  -30.2623 H   0  0  0  0  0  0  0  0  0  0  0  0
  -22.1741   -6.0607  -31.5885 H   0  0  0  0  0  0  0  0  0  0  0  0
  -23.8066   -5.3538  -31.4164 H   0  0  0  0  0  0  0  0  0  0  0  0
  -24.1226   -2.9014  -32.0633 H   0  0  0  0  0  0  0  0  0  0  0  0
  -22.6984   -2.0028  -32.6623 H   0  0  0  0  0  0  0  0  0  0  0  0
  -24.1988   -3.5673  -29.5076 H   0  0  0  0  0  0  0  0  0  0  0  0
  -18.0732   -8.5379  -37.6516 H   0  0  0  0  0  0  0  0  0  0  0  0
  -17.7204   -6.8620  -37.1272 H   0  0  0  0  0  0  0  0  0  0  0  0
  -19.3696   -7.3138  -37.6336 H   0  0  0  0  0  0  0  0  0  0  0  0
  -20.4041   -3.9340  -31.5011 H   0  0  0  0  0  0  0  0  0  0  0  0
  -20.7155   -2.9397  -32.9311 H   0  0  0  0  0  0  0  0  0  0  0  0
  -23.1079   -2.2036  -27.7223 H   0  0  0  0  0  0  0  0  0  0  0  0
  -22.7610   -4.3560  -33.1915 H   0  0  0  0  0  0  0  0  0  0  0  0
  1 16  1  0  0  0  0
  1 27  3  0  0  0  0
  2  3  2  0  0  0  0
  2  6  1  0  0  0  0
  3  7  1  0  0  0  0
  4  8  1  0  0  0  0
  4 10  2  0  0  0  0
  5  9  2  0  0  0  0
  5 10  1  0  0  0  0
  6 11  2  0  0  0  0
  7 12  2  0  0  0  0
  8 13  2  0  0  0  0
  9 13  1  0  0  0  0
 10 25  1  0  0  0  0
 11 12  1  0  0  0  0
 11 28  1  0  0  0  0
 12 29  1  0  0  0  0
 13 32  1  0  0  0  0
 14 16  1  0  0  0  0
 14 28  2  0  0  0  0
 14 29  1  0  0  0  0
 15 17  1  0  0  0  0
 15 18  2  0  0  0  0
 16 17  2  0  0  0  0
 17 26  1  0  0  0  0
 18 29  1  0  0  0  0
 18 30  1  0  0  0  0
 19 21  1  0  0  0  0
 19 23  1  0  0  0  0
 20 22  1  0  0  0  0
 20 23  1  0  0  0  0
 21 31  1  0  0  0  0
 22 31  1  0  0  0  0
 23 30  1  0  0  0  0
 24 32  1  0  0  0  0
 25 31  1  0  0  0  0
 26 33  1  0  0  0  0
 26 34  1  0  0  0  0
 26 35  1  0  0  0  0
  2 36  1  0  0  0  0
  3 37  1  0  0  0  0
  4 38  1  0  0  0  0
  5 39  1  0  0  0  0
  6 40  1  0  0  0  0
  7 41  1  0  0  0  0
  8 42  1  0  0  0  0
  9 43  1  0  0  0  0
 15 44  1  0  0  0  0
 19 45  1  0  0  0  0
 19 46  1  0  0  0  0
 20 47  1  0  0  0  0
 20 48  1  0  0  0  0
 21 49  1  0  0  0  0
 21 50  1  0  0  0  0
 22 51  1  0  0  0  0
 22 52  1  0  0  0  0
 23 53  1  0  0  0  0
 24 54  1  0  0  0  0
 24 55  1  0  0  0  0
 24 56  1  0  0  0  0
 25 57  1  0  0  0  0
 25 58  1  0  0  0  0
 30 59  1  0  0  0  0
 31 60  1  0  0  0  0
M  CHG  1  31   1
M  END
> <SMILES>
COc1ccc(cc1)CN1CCC(CC1)Nc1cc(c(c2nc3ccccc3n12)C#N)C(F)(F)F

> <FORMATTED_ID>
H3D-005857

> <MOLFORMULA>
C26H24F3N5O

> <Exact Mass>
479.19

> <XLogP>
6.32

> <TPSA_NOPS>
65.6

> <s_m_source_file>
ligprep_h3d.sdf

> <i_m_source_file_index>
2456

> <i_lp_mmshare_version>
55123

> <i_f3d_flags>
0

> <s_epik_input>
W0NIM11PYzFbY0hdW2NIXWMoW2NIXVtjSF0xKVtDSDJdTjJbQ0gyXVtDSDJdW0NIXShbQ0gyXVtDSDJdMilbTkhdYyhbY0hdYyhDKEYpKEYpRiljM0MjTiluKGMzNCljNWMobjQpW2NIXVtjSF1bY0hdW2NIXTU=

> <s_epik_cmdline>
J2VwaWtfcHl0aG9uJywgJy1waHQnLCAnMC41JywgJy1waCcsICc3LjUnLCAnLXRuJywgJzgnLCAnLW1hJywgJzUwMCcsICctaW1hZScsICc8aW5maWxlLm1hZT4nLCAnLW9tYWUnLCAnPG91dGZpbGUubWFlPic=

> <r_lp_tautomer_probability>
1

> <r_epik_Ionization_Penalty>
0.359243

> <r_epik_Ionization_Penalty_Charging>
0.359022

> <r_epik_Ionization_Penalty_Neutral>
0.000221198

> <r_epik_State_Penalty>
0.355733

> <r_epik_Charging_Adjusted_Penalty>
0.714755

> <i_epik_Tot_Q>
1

> <i_epik_Tot_abs_Q>
1

> <s_lp_Force_Field>
S-OPLS

> <r_lp_Energy>
67.6395

> <b_lp_Chiralities_Consistent>
1

> <s_lp_Variant>
ligprep_h3d.sdf:2456-1

> <ROCS_ShapeQuery>
_7L13

> <ROCS_TanimotoCombo>
0.782 

> <ROCS_ShapeTanimoto>
0.649 

> <ROCS_ColorTanimoto>
0.133 

> <ROCS_RefTversky>
0.780 

> <ROCS_RefColorTversky>
0.259 

> <ROCS_RefTverskyCombo>
1.039 

> <ROCS_FitTversky>
0.794 

> <ROCS_FitColorTversky>
0.216 

> <ROCS_FitTverskyCombo>
1.010 

> <ROCS_ColorScore>
-2.358

> <ROCS_Overlap>
1294.183

> <ROCS_Rank>
359                 

$$$$
ligprep_h3d.sdf:1277_1305
  -OEChem-08212117123D

 65 69  0     0  0  0  0  0  0999 V2000
  -20.0746   -3.6945  -32.0964 C   0  0  0  0  0  0  0  0  0  0  0  0
  -20.3663   -6.0905  -31.9922 C   0  0  0  0  0  0  0  0  0  0  0  0
  -19.4420   -3.8252  -33.3327 C   0  0  0  0  0  0  0  0  0  0  0  0
  -19.7337   -6.2213  -33.2285 C   0  0  0  0  0  0  0  0  0  0  0  0
  -17.0211   -5.6501  -26.2460 C   0  0  0  0  0  0  0  0  0  0  0  0
  -23.2139   -4.3892  -28.8605 C   0  0  0  0  0  0  0  0  0  0  0  0
  -21.0654   -4.4953  -25.3048 C   0  0  0  0  0  0  0  0  0  0  0  0
  -16.9990   -4.2443  -26.3164 C   0  0  0  0  0  0  0  0  0  0  0  0
  -21.1086   -4.5956  -27.7199 C   0  0  0  0  0  0  0  0  0  0  0  0
  -20.5367   -4.8271  -31.4262 C   0  0  0  0  0  0  0  0  0  0  0  0
  -21.1926   -4.6915  -30.1438 C   0  0  0  0  0  0  0  0  0  0  0  0
  -19.2716   -5.0886  -33.8988 C   0  0  0  0  0  0  0  0  0  0  0  0
  -22.5706   -4.5215  -30.0936 C   0  0  0  0  0  0  0  0  0  0  0  0
  -20.4613   -4.7287  -28.9600 C   0  0  0  0  0  0  0  0  0  0  0  0
  -22.5075   -4.4229  -27.6613 C   0  0  0  0  0  0  0  0  0  0  0  0
  -20.3970   -4.6294  -26.5131 C   0  0  0  0  0  0  0  0  0  0  0  0
  -22.4350   -4.3306  -25.3480 C   0  0  0  0  0  0  0  0  0  0  0  0
  -18.3535   -5.9764  -26.3141 C   0  0  0  0  0  0  0  0  0  0  0  0
  -23.1897   -4.1846  -24.1137 C   0  0  0  0  0  0  0  0  0  0  0  0
  -24.4783   -4.5546  -23.9371 C   0  0  0  0  0  0  0  0  0  0  0  0
  -25.2116   -4.3563  -22.6018 C   0  0  0  0  0  0  0  0  0  0  0  0
  -17.7829   -6.8400  -36.8338 C   0  0  0  0  0  0  0  0  0  0  0  0
  -20.1446   -6.6540  -36.4021 C   0  0  0  0  0  0  0  0  0  0  0  0
  -18.0310   -8.2187  -37.4389 C   0  0  0  0  0  0  0  0  0  0  0  0
  -20.3369   -8.0376  -37.0164 C   0  0  0  0  0  0  0  0  0  0  0  0
  -23.4040   -4.4739  -31.3350 C   0  0  0  0  0  0  0  0  0  0  0  0
  -18.9759   -4.9155  -29.0932 C   0  0  0  0  0  0  0  0  0  0  0  0
  -19.0219   -7.2923  -26.2896 C   0  0  0  0  0  0  0  0  0  0  0  0
  -18.5905   -5.2294  -35.2294 C   0  0  0  0  0  0  0  0  0  0  0  0
  -18.2204   -3.7140  -26.4214 N   0  0  0  0  0  0  0  0  0  0  0  0
  -23.1589   -4.2924  -26.4902 N   0  0  0  0  0  0  0  0  0  0  0  0
  -19.0224   -4.7924  -26.4175 N   0  0  0  0  0  0  0  0  0  0  0  0
  -18.8016   -6.5518  -35.8146 N   0  0  0  0  0  0  0  0  0  0  0  0
  -24.5580   -3.8271  -21.6599 O   0  5  0  0  0  0  0  0  0  0  0  0
  -26.4121   -4.7599  -22.6099 O   0  0  0  0  0  0  0  0  0  0  0  0
  -19.3392   -8.2843  -38.0079 O   0  0  0  0  0  0  0  0  0  0  0  0
  -20.1993   -2.7028  -31.6679 H   0  0  0  0  0  0  0  0  0  0  0  0
  -20.7215   -6.9829  -31.4824 H   0  0  0  0  0  0  0  0  0  0  0  0
  -19.0842   -2.9374  -33.8473 H   0  0  0  0  0  0  0  0  0  0  0  0
  -19.6056   -7.2095  -33.6625 H   0  0  0  0  0  0  0  0  0  0  0  0
  -16.1862   -6.3299  -26.1586 H   0  0  0  0  0  0  0  0  0  0  0  0
  -24.2948   -4.2568  -28.8363 H   0  0  0  0  0  0  0  0  0  0  0  0
  -20.5331   -4.5184  -24.3575 H   0  0  0  0  0  0  0  0  0  0  0  0
  -16.1437   -3.5842  -26.2958 H   0  0  0  0  0  0  0  0  0  0  0  0
  -22.6565   -3.7160  -23.2791 H   0  0  0  0  0  0  0  0  0  0  0  0
  -25.0284   -4.9964  -24.7670 H   0  0  0  0  0  0  0  0  0  0  0  0
  -16.7824   -6.8218  -36.3869 H   0  0  0  0  0  0  0  0  0  0  0  0
  -17.8149   -6.0825  -37.6278 H   0  0  0  0  0  0  0  0  0  0  0  0
  -20.2800   -5.8885  -37.1773 H   0  0  0  0  0  0  0  0  0  0  0  0
  -20.9093   -6.4978  -35.6326 H   0  0  0  0  0  0  0  0  0  0  0  0
  -17.3092   -8.4086  -38.2399 H   0  0  0  0  0  0  0  0  0  0  0  0
  -17.9158   -9.0141  -36.6927 H   0  0  0  0  0  0  0  0  0  0  0  0
  -20.3003   -8.8275  -36.2561 H   0  0  0  0  0  0  0  0  0  0  0  0
  -21.3140   -8.0956  -37.5064 H   0  0  0  0  0  0  0  0  0  0  0  0
  -23.4898   -3.4422  -31.6926 H   0  0  0  0  0  0  0  0  0  0  0  0
  -22.9623   -5.0860  -32.1297 H   0  0  0  0  0  0  0  0  0  0  0  0
  -24.4105   -4.8666  -31.1489 H   0  0  0  0  0  0  0  0  0  0  0  0
  -18.7342   -5.9812  -29.0814 H   0  0  0  0  0  0  0  0  0  0  0  0
  -18.6131   -4.4770  -30.0270 H   0  0  0  0  0  0  0  0  0  0  0  0
  -18.4488   -4.4203  -28.2728 H   0  0  0  0  0  0  0  0  0  0  0  0
  -19.2669   -7.5942  -25.2581 H   0  0  0  0  0  0  0  0  0  0  0  0
  -19.9601   -7.2907  -26.8702 H   0  0  0  0  0  0  0  0  0  0  0  0
  -18.3924   -8.0843  -26.7301 H   0  0  0  0  0  0  0  0  0  0  0  0
  -18.9678   -4.4832  -35.9371 H   0  0  0  0  0  0  0  0  0  0  0  0
  -17.5107   -5.0728  -35.1366 H   0  0  0  0  0  0  0  0  0  0  0  0
  1  3  1  0  0  0  0
  1 10  2  0  0  0  0
  2  4  2  0  0  0  0
  2 10  1  0  0  0  0
  3 12  2  0  0  0  0
  4 12  1  0  0  0  0
  5  8  1  0  0  0  0
  5 18  2  0  0  0  0
  6 13  2  0  0  0  0
  6 15  1  0  0  0  0
  7 16  1  0  0  0  0
  7 17  2  0  0  0  0
  8 30  2  0  0  0  0
  9 14  1  0  0  0  0
  9 15  1  0  0  0  0
  9 16  2  0  0  0  0
 10 11  1  0  0  0  0
 11 13  1  0  0  0  0
 11 14  2  0  0  0  0
 12 29  1  0  0  0  0
 13 26  1  0  0  0  0
 14 27  1  0  0  0  0
 15 31  2  0  0  0  0
 16 32  1  0  0  0  0
 17 19  1  0  0  0  0
 17 31  1  0  0  0  0
 18 28  1  0  0  0  0
 18 32  1  0  0  0  0
 19 20  2  0  0  0  0
 20 21  1  0  0  0  0
 21 34  1  0  0  0  0
 21 35  2  0  0  0  0
 22 24  1  0  0  0  0
 22 33  1  0  0  0  0
 23 25  1  0  0  0  0
 23 33  1  0  0  0  0
 24 36  1  0  0  0  0
 25 36  1  0  0  0  0
 29 33  1  0  0  0  0
 30 32  1  0  0  0  0
  1 37  1  0  0  0  0
  2 38  1  0  0  0  0
  3 39  1  0  0  0  0
  4 40  1  0  0  0  0
  5 41  1  0  0  0  0
  6 42  1  0  0  0  0
  7 43  1  0  0  0  0
  8 44  1  0  0  0  0
 19 45  1  0  0  0  0
 20 46  1  0  0  0  0
 22 47  1  0  0  0  0
 22 48  1  0  0  0  0
 23 49  1  0  0  0  0
 23 50  1  0  0  0  0
 24 51  1  0  0  0  0
 24 52  1  0  0  0  0
 25 53  1  0  0  0  0
 25 54  1  0  0  0  0
 26 55  1  0  0  0  0
 26 56  1  0  0  0  0
 26 57  1  0  0  0  0
 27 58  1  0  0  0  0
 27 59  1  0  0  0  0
 27 60  1  0  0  0  0
 28 61  1  0  0  0  0
 28 62  1  0  0  0  0
 28 63  1  0  0  0  0
 29 64  1  0  0  0  0
 29 65  1  0  0  0  0
M  CHG  1  34  -1
M  END
> <SMILES>
Cc1cc2nc(cc(c2c(c1-c1ccc(cc1)CN1CCOCC1)C)-n1nccc1C)/C=C/C(=O)O

> <FORMATTED_ID>
H3D-008588

> <MOLFORMULA>
C29H30N4O3

> <Exact Mass>
482.23

> <XLogP>
4.26

> <TPSA_NOPS>
80.5

> <s_m_source_file>
ligprep_h3d.sdf

> <i_m_source_file_index>
1277

> <i_lp_mmshare_version>
55123

> <i_f3d_flags>
0

> <s_epik_input>
W0NIM11jMVtjSF1bY0hdbm4xLWMoW2NIXWMobjIpL1tDSF09W0NIXS9DKD1PKVtPSF0pYyhjMjMpYyhbQ0gzXSljKGMoW0NIM10pW2NIXTMpLWM0W2NIXVtjSF1jKFtjSF1bY0hdNClbQ0gyXU41W0NIMl1bQ0gyXU9bQ0gyXVtDSDJdNQ==

> <s_epik_cmdline>
J2VwaWtfcHl0aG9uJywgJy1waHQnLCAnMC41JywgJy1waCcsICc3LjUnLCAnLXRuJywgJzgnLCAnLW1hJywgJzUwMCcsICctaW1hZScsICc8aW5maWxlLm1hZT4nLCAnLW9tYWUnLCAnPG91dGZpbGUubWFlPic=

> <r_lp_tautomer_probability>
1

> <r_epik_Ionization_Penalty>
0.106863

> <r_epik_Ionization_Penalty_Charging>
0.000210997

> <r_epik_Ionization_Penalty_Neutral>
0.106652

> <r_epik_State_Penalty>
0.095414

> <r_epik_Charging_Adjusted_Penalty>
0.095625

> <i_epik_Tot_Q>
-1

> <i_epik_Tot_abs_Q>
1

> <s_lp_Force_Field>
S-OPLS

> <r_lp_Energy>
67.9251

> <b_lp_Chiralities_Consistent>
1

> <s_lp_Variant>
ligprep_h3d.sdf:1277-1

> <ROCS_ShapeQuery>
_7L13

> <ROCS_TanimotoCombo>
0.716 

> <ROCS_ShapeTanimoto>
0.637 

> <ROCS_ColorTanimoto>
0.080 

> <ROCS_RefTversky>
0.780 

> <ROCS_RefColorTversky>
0.169 

> <ROCS_RefTverskyCombo>
0.949 

> <ROCS_FitTversky>
0.776 

> <ROCS_FitColorTversky>
0.131 

> <ROCS_FitTverskyCombo>
0.907 

> <ROCS_ColorScore>
-1.550

> <ROCS_Overlap>
1295.762

> <ROCS_Rank>
360                 

$$$$
ligprep_h3d.sdf:5339_1126
  -OEChem-08212117123D

 63 68  0     0  0  0  0  0  0999 V2000
  -21.1886   -6.4047  -33.3898 C   0  0  0  0  0  0  0  0  0  0  0  0
  -20.2650   -4.1904  -33.1056 C   0  0  0  0  0  0  0  0  0  0  0  0
  -20.2679   -6.6584  -34.4064 C   0  0  0  0  0  0  0  0  0  0  0  0
  -19.3442   -4.4441  -34.1222 C   0  0  0  0  0  0  0  0  0  0  0  0
  -23.7340   -4.0742  -27.7307 C   0  0  0  0  0  0  0  0  0  0  0  0
  -21.0241   -4.3714  -28.4370 C   0  0  0  0  0  0  0  0  0  0  0  0
  -15.1320   -5.2760  -25.8786 C   0  0  0  0  0  0  0  0  0  0  0  0
  -15.0239   -6.5520  -25.3910 C   0  0  0  0  0  0  0  0  0  0  0  0
  -22.7702   -4.3488  -26.7679 C   0  0  0  0  0  0  0  0  0  0  0  0
  -21.1872   -5.1707  -32.7394 C   0  0  0  0  0  0  0  0  0  0  0  0
  -21.4209   -4.4998  -27.1108 C   0  0  0  0  0  0  0  0  0  0  0  0
  -23.3355   -3.9548  -29.0614 C   0  0  0  0  0  0  0  0  0  0  0  0
  -21.9883   -4.1013  -29.4122 C   0  0  0  0  0  0  0  0  0  0  0  0
  -19.3457   -5.6781  -34.7726 C   0  0  0  0  0  0  0  0  0  0  0  0
  -17.1755   -6.0703  -25.5437 C   0  0  0  0  0  0  0  0  0  0  0  0
  -18.6630   -6.0588  -25.5253 C   0  0  0  0  0  0  0  0  0  0  0  0
  -18.4304   -3.8025  -26.3928 C   0  0  0  0  0  0  0  0  0  0  0  0
  -17.0844   -3.8397  -26.3995 C   0  0  0  0  0  0  0  0  0  0  0  0
  -19.2704   -4.9288  -25.9483 C   0  0  0  0  0  0  0  0  0  0  0  0
  -23.2580   -3.0965  -24.6504 C   0  0  0  0  0  0  0  0  0  0  0  0
  -24.0421   -5.4934  -24.8967 C   0  0  0  0  0  0  0  0  0  0  0  0
  -21.5279   -4.9854  -24.8569 C   0  0  0  0  0  0  0  0  0  0  0  0
  -23.5455   -3.1700  -23.1554 C   0  0  0  0  0  0  0  0  0  0  0  0
  -24.2848   -5.5513  -23.3950 C   0  0  0  0  0  0  0  0  0  0  0  0
  -22.9466   -4.4761  -25.2735 C   0  0  0  0  0  0  0  0  0  0  0  0
  -24.5410   -2.3330  -30.3152 C   0  0  0  0  0  0  0  0  0  0  0  0
  -22.1769   -4.8974  -31.6452 C   0  0  0  0  0  0  0  0  0  0  0  0
  -16.4800   -4.9976  -25.9653 N   0  0  0  0  0  0  0  0  0  0  0  0
  -16.3027   -7.0186  -25.1934 N   0  3  0  0  0  0  0  0  0  0  0  0
  -20.6162   -4.7712  -25.9874 N   0  0  0  0  0  0  0  0  0  0  0  0
  -24.6126   -4.1811  -22.9024 N   0  3  0  0  0  0  0  0  0  0  0  0
  -24.2726   -3.7015  -30.0182 O   0  0  0  0  0  0  0  0  0  0  0  0
  -21.6013   -3.9838  -30.7146 O   0  0  0  0  0  0  0  0  0  0  0  0
  -18.4596   -5.9225  -35.7470 F   0  0  0  0  0  0  0  0  0  0  0  0
  -21.9039   -7.1745  -33.1119 H   0  0  0  0  0  0  0  0  0  0  0  0
  -20.2562   -3.2261  -32.6043 H   0  0  0  0  0  0  0  0  0  0  0  0
  -20.2685   -7.6192  -34.9122 H   0  0  0  0  0  0  0  0  0  0  0  0
  -18.6263   -3.6810  -34.4079 H   0  0  0  0  0  0  0  0  0  0  0  0
  -24.7788   -3.9650  -27.4575 H   0  0  0  0  0  0  0  0  0  0  0  0
  -19.9825   -4.4710  -28.7266 H   0  0  0  0  0  0  0  0  0  0  0  0
  -14.4294   -4.5215  -26.1781 H   0  0  0  0  0  0  0  0  0  0  0  0
  -14.2140   -7.2117  -25.1500 H   0  0  0  0  0  0  0  0  0  0  0  0
  -19.2021   -6.9331  -25.1821 H   0  0  0  0  0  0  0  0  0  0  0  0
  -18.9357   -2.9018  -26.7298 H   0  0  0  0  0  0  0  0  0  0  0  0
  -16.4586   -3.0184  -26.7237 H   0  0  0  0  0  0  0  0  0  0  0  0
  -24.1301   -2.6464  -25.1489 H   0  0  0  0  0  0  0  0  0  0  0  0
  -22.4272   -2.3974  -24.8270 H   0  0  0  0  0  0  0  0  0  0  0  0
  -23.7825   -6.4944  -25.2575 H   0  0  0  0  0  0  0  0  0  0  0  0
  -24.9842   -5.2256  -25.3895 H   0  0  0  0  0  0  0  0  0  0  0  0
  -21.1465   -4.4194  -23.9965 H   0  0  0  0  0  0  0  0  0  0  0  0
  -21.5362   -6.0424  -24.5675 H   0  0  0  0  0  0  0  0  0  0  0  0
  -22.6659   -3.4664  -22.5718 H   0  0  0  0  0  0  0  0  0  0  0  0
  -23.9178   -2.2123  -22.7744 H   0  0  0  0  0  0  0  0  0  0  0  0
  -25.1394   -6.1876  -23.1547 H   0  0  0  0  0  0  0  0  0  0  0  0
  -23.4121   -5.8974  -22.8369 H   0  0  0  0  0  0  0  0  0  0  0  0
  -25.3057   -2.2715  -31.0934 H   0  0  0  0  0  0  0  0  0  0  0  0
  -23.6228   -1.8456  -30.6524 H   0  0  0  0  0  0  0  0  0  0  0  0
  -24.9034   -1.8375  -29.4114 H   0  0  0  0  0  0  0  0  0  0  0  0
  -23.0977   -4.4631  -32.0493 H   0  0  0  0  0  0  0  0  0  0  0  0
  -22.4425   -5.8228  -31.1227 H   0  0  0  0  0  0  0  0  0  0  0  0
  -16.5449   -7.9390  -24.8370 H   0  0  0  0  0  0  0  0  0  0  0  0
  -24.8015   -4.2247  -21.8918 H   0  0  0  0  0  0  0  0  0  0  0  0
  -25.4928   -3.8653  -23.3338 H   0  0  0  0  0  0  0  0  0  0  0  0
  1  3  1  0  0  0  0
  1 10  2  0  0  0  0
  2  4  2  0  0  0  0
  2 10  1  0  0  0  0
  3 14  2  0  0  0  0
  4 14  1  0  0  0  0
  5  9  1  0  0  0  0
  5 12  2  0  0  0  0
  6 11  1  0  0  0  0
  6 13  2  0  0  0  0
  7  8  2  0  0  0  0
  7 28  1  0  0  0  0
  8 29  1  0  0  0  0
  9 11  2  0  0  0  0
  9 25  1  0  0  0  0
 10 27  1  0  0  0  0
 11 30  1  0  0  0  0
 12 13  1  0  0  0  0
 12 32  1  0  0  0  0
 13 33  1  0  0  0  0
 14 34  1  0  0  0  0
 15 16  1  0  0  0  0
 15 28  1  0  0  0  0
 15 29  2  0  0  0  0
 16 19  2  0  0  0  0
 17 18  2  0  0  0  0
 17 19  1  0  0  0  0
 18 28  1  0  0  0  0
 19 30  1  0  0  0  0
 20 23  1  0  0  0  0
 20 25  1  0  0  0  0
 21 24  1  0  0  0  0
 21 25  1  0  0  0  0
 22 25  1  0  0  0  0
 22 30  1  0  0  0  0
 23 31  1  0  0  0  0
 24 31  1  0  0  0  0
 26 32  1  0  0  0  0
 27 33  1  0  0  0  0
  1 35  1  0  0  0  0
  2 36  1  0  0  0  0
  3 37  1  0  0  0  0
  4 38  1  0  0  0  0
  5 39  1  0  0  0  0
  6 40  1  0  0  0  0
  7 41  1  0  0  0  0
  8 42  1  0  0  0  0
 16 43  1  0  0  0  0
 17 44  1  0  0  0  0
 18 45  1  0  0  0  0
 20 46  1  0  0  0  0
 20 47  1  0  0  0  0
 21 48  1  0  0  0  0
 21 49  1  0  0  0  0
 22 50  1  0  0  0  0
 22 51  1  0  0  0  0
 23 52  1  0  0  0  0
 23 53  1  0  0  0  0
 24 54  1  0  0  0  0
 24 55  1  0  0  0  0
 26 56  1  0  0  0  0
 26 57  1  0  0  0  0
 26 58  1  0  0  0  0
 27 59  1  0  0  0  0
 27 60  1  0  0  0  0
 29 61  1  0  0  0  0
 31 62  1  0  0  0  0
 31 63  1  0  0  0  0
M  CHG  2  29   1  31   1
M  END
> <SMILES>
COc1cc2c(cc1OCc1ccc(cc1)F)N(CC12CCNCC1)c1ccn2ccnc2c1

> <FORMATTED_ID>
H3D-014962

> <MOLFORMULA>
C27H27FN4O2

> <Exact Mass>
458.21

> <XLogP>
5.86

> <TPSA_NOPS>
51

> <s_m_source_file>
ligprep_h3d.sdf

> <i_m_source_file_index>
5339

> <i_lp_mmshare_version>
55123

> <i_f3d_flags>
0

> <s_epik_input>
W2NIXTFbY0hdYyhGKVtjSF1bY0hdYzFbQ0gyXU9jKGMoW2NIXTIpT1tDSDNdKVtjSF1jKGMyQzM0W0NIMl1bQ0gyXVtOSF1bQ0gyXVtDSDJdNClOKFtDSDJdMyljKFtjSF1bY0hdNSlbY0hdYyhuNTYpbltjSF1bY0hdNg==

> <s_epik_cmdline>
J2VwaWtfcHl0aG9uJywgJy1waHQnLCAnMC41JywgJy1waCcsICc3LjUnLCAnLXRuJywgJzgnLCAnLW1hJywgJzUwMCcsICctaW1hZScsICc8aW5maWxlLm1hZT4nLCAnLW9tYWUnLCAnPG91dGZpbGUubWFlPic=

> <r_lp_tautomer_probability>
1

> <r_epik_Ionization_Penalty>
0.400734

> <r_epik_Ionization_Penalty_Charging>
0.00220253

> <r_epik_Ionization_Penalty_Neutral>
0.398532

> <r_epik_State_Penalty>
0.397726

> <r_epik_Charging_Adjusted_Penalty>
0.399929

> <i_epik_Tot_Q>
2

> <i_epik_Tot_abs_Q>
2

> <s_lp_Force_Field>
S-OPLS

> <r_lp_Energy>
77.7908

> <b_lp_Chiralities_Consistent>
1

> <s_lp_Variant>
ligprep_h3d.sdf:5339-1

> <ROCS_ShapeQuery>
_7L13

> <ROCS_TanimotoCombo>
0.756 

> <ROCS_ShapeTanimoto>
0.660 

> <ROCS_ColorTanimoto>
0.097 

> <ROCS_RefTversky>
0.780 

> <ROCS_RefColorTversky>
0.203 

> <ROCS_RefTverskyCombo>
0.983 

> <ROCS_FitTversky>
0.810 

> <ROCS_FitColorTversky>
0.156 

> <ROCS_FitTverskyCombo>
0.966 

> <ROCS_ColorScore>
-1.857

> <ROCS_Overlap>
1292.666

> <ROCS_Rank>
361                 

$$$$
ligprep_h3d.sdf:5547_1943
  -OEChem-08212117123D

 56 59  0     0  0  0  0  0  0999 V2000
  -20.6072   -7.5243  -34.0084 C   0  0  0  0  0  0  0  0  0  0  0  0
  -24.2770   -4.2636  -22.6820 C   0  0  0  0  0  0  0  0  0  0  0  0
  -25.8320   -4.9314  -24.4063 C   0  0  0  0  0  0  0  0  0  0  0  0
  -23.2507   -4.2172  -23.6254 C   0  0  0  0  0  0  0  0  0  0  0  0
  -24.8056   -4.8850  -25.3498 C   0  0  0  0  0  0  0  0  0  0  0  0
  -21.0907   -6.7568  -32.9488 C   0  0  0  0  0  0  0  0  0  0  0  0
  -19.7258   -6.9618  -34.9317 C   0  0  0  0  0  0  0  0  0  0  0  0
  -18.7394   -4.8489  -26.0892 C   0  0  0  0  0  0  0  0  0  0  0  0
  -19.3246   -4.3410  -28.7532 C   0  0  0  0  0  0  0  0  0  0  0  0
  -19.8115   -4.8644  -33.7357 C   0  0  0  0  0  0  0  0  0  0  0  0
  -20.0713   -4.6555  -26.4927 C   0  0  0  0  0  0  0  0  0  0  0  0
  -25.5677   -4.6207  -23.0724 C   0  0  0  0  0  0  0  0  0  0  0  0
  -23.5150   -4.5279  -24.9593 C   0  0  0  0  0  0  0  0  0  0  0  0
  -20.3813   -4.3970  -27.8257 C   0  0  0  0  0  0  0  0  0  0  0  0
  -20.6929   -5.4269  -32.8124 C   0  0  0  0  0  0  0  0  0  0  0  0
  -17.7067   -4.7864  -27.0203 C   0  0  0  0  0  0  0  0  0  0  0  0
  -17.9998   -4.5341  -28.3536 C   0  0  0  0  0  0  0  0  0  0  0  0
  -19.3279   -5.6319  -34.7953 C   0  0  0  0  0  0  0  0  0  0  0  0
  -21.1432   -4.7594  -25.4897 C   0  0  0  0  0  0  0  0  0  0  0  0
  -22.7940   -4.1713  -27.2846 C   0  0  0  0  0  0  0  0  0  0  0  0
  -21.5588   -5.0910  -30.4711 C   0  0  0  0  0  0  0  0  0  0  0  0
  -26.6649   -4.6703  -22.0636 C   0  0  0  0  0  0  0  0  0  0  0  0
  -16.2104   -5.2299  -25.2257 C   0  0  0  0  0  0  0  0  0  0  0  0
  -17.3907   -4.2072  -30.6291 C   0  0  0  0  0  0  0  0  0  0  0  0
  -22.0310   -3.9274  -29.6210 C   0  0  0  0  0  0  0  0  0  0  0  0
  -22.4488   -4.4795  -25.9399 N   0  0  0  0  0  0  0  0  0  0  0  0
  -21.7351   -4.1876  -28.2110 N   0  0  0  0  0  0  0  0  0  0  0  0
  -21.1850   -4.6490  -31.7374 N   0  0  0  0  0  0  0  0  0  0  0  0
  -20.8381   -5.1379  -24.3599 O   0  0  0  0  0  0  0  0  0  0  0  0
  -23.9404   -3.8603  -27.6302 O   0  0  0  0  0  0  0  0  0  0  0  0
  -21.5228   -6.2406  -30.0440 O   0  0  0  0  0  0  0  0  0  0  0  0
  -16.4214   -4.9761  -26.6137 O   0  0  0  0  0  0  0  0  0  0  0  0
  -17.0045   -4.4706  -29.2818 O   0  0  0  0  0  0  0  0  0  0  0  0
  -18.2404   -4.9378  -35.9344 Cl  0  0  0  0  0  0  0  0  0  0  0  0
  -20.9171   -8.5600  -34.1145 H   0  0  0  0  0  0  0  0  0  0  0  0
  -24.0616   -4.0221  -21.6444 H   0  0  0  0  0  0  0  0  0  0  0  0
  -26.8344   -5.2114  -24.7191 H   0  0  0  0  0  0  0  0  0  0  0  0
  -22.2487   -3.9372  -23.3100 H   0  0  0  0  0  0  0  0  0  0  0  0
  -25.0224   -5.1300  -26.3865 H   0  0  0  0  0  0  0  0  0  0  0  0
  -21.7774   -7.2060  -32.2354 H   0  0  0  0  0  0  0  0  0  0  0  0
  -19.3573   -7.5723  -35.7519 H   0  0  0  0  0  0  0  0  0  0  0  0
  -18.4952   -5.0520  -25.0492 H   0  0  0  0  0  0  0  0  0  0  0  0
  -19.5060   -4.1421  -29.8064 H   0  0  0  0  0  0  0  0  0  0  0  0
  -19.5030   -3.8270  -33.6261 H   0  0  0  0  0  0  0  0  0  0  0  0
  -27.1626   -3.6955  -21.9923 H   0  0  0  0  0  0  0  0  0  0  0  0
  -27.4160   -5.4258  -22.3285 H   0  0  0  0  0  0  0  0  0  0  0  0
  -26.2813   -4.9386  -21.0705 H   0  0  0  0  0  0  0  0  0  0  0  0
  -15.1423   -5.3625  -25.0370 H   0  0  0  0  0  0  0  0  0  0  0  0
  -16.7576   -6.1291  -24.9316 H   0  0  0  0  0  0  0  0  0  0  0  0
  -16.5770   -4.3776  -24.6488 H   0  0  0  0  0  0  0  0  0  0  0  0
  -16.5027   -4.1828  -31.2654 H   0  0  0  0  0  0  0  0  0  0  0  0
  -17.9138   -3.2488  -30.6785 H   0  0  0  0  0  0  0  0  0  0  0  0
  -18.0583   -5.0023  -30.9695 H   0  0  0  0  0  0  0  0  0  0  0  0
  -23.1093   -3.7895  -29.7490 H   0  0  0  0  0  0  0  0  0  0  0  0
  -21.5176   -3.0173  -29.9466 H   0  0  0  0  0  0  0  0  0  0  0  0
  -21.2700   -3.6524  -31.9258 H   0  0  0  0  0  0  0  0  0  0  0  0
  1  6  1  0  0  0  0
  1  7  2  0  0  0  0
  2  4  1  0  0  0  0
  2 12  2  0  0  0  0
  3  5  2  0  0  0  0
  3 12  1  0  0  0  0
  4 13  2  0  0  0  0
  5 13  1  0  0  0  0
  6 15  2  0  0  0  0
  7 18  1  0  0  0  0
  8 11  2  0  0  0  0
  8 16  1  0  0  0  0
  9 14  2  0  0  0  0
  9 17  1  0  0  0  0
 10 15  1  0  0  0  0
 10 18  2  0  0  0  0
 11 14  1  0  0  0  0
 11 19  1  0  0  0  0
 12 22  1  0  0  0  0
 13 26  1  0  0  0  0
 14 27  1  0  0  0  0
 15 28  1  0  0  0  0
 16 17  2  0  0  0  0
 16 32  1  0  0  0  0
 17 33  1  0  0  0  0
 18 34  1  0  0  0  0
 19 26  1  0  0  0  0
 19 29  2  0  0  0  0
 20 26  1  0  0  0  0
 20 27  1  0  0  0  0
 20 30  2  0  0  0  0
 21 25  1  0  0  0  0
 21 28  1  0  0  0  0
 21 31  2  0  0  0  0
 23 32  1  0  0  0  0
 24 33  1  0  0  0  0
 25 27  1  0  0  0  0
  1 35  1  0  0  0  0
  2 36  1  0  0  0  0
  3 37  1  0  0  0  0
  4 38  1  0  0  0  0
  5 39  1  0  0  0  0
  6 40  1  0  0  0  0
  7 41  1  0  0  0  0
  8 42  1  0  0  0  0
  9 43  1  0  0  0  0
 10 44  1  0  0  0  0
 22 45  1  0  0  0  0
 22 46  1  0  0  0  0
 22 47  1  0  0  0  0
 23 48  1  0  0  0  0
 23 49  1  0  0  0  0
 23 50  1  0  0  0  0
 24 51  1  0  0  0  0
 24 52  1  0  0  0  0
 24 53  1  0  0  0  0
 25 54  1  0  0  0  0
 25 55  1  0  0  0  0
 28 56  1  0  0  0  0
M  END
> <SMILES>
COc1cc2c(cc1OC)C(=O)N(C(=O)N2CC(=O)Nc1cccc(c1)Cl)c1ccc(cc1)C

> <FORMATTED_ID>
H3D-014137

> <MOLFORMULA>
C25H22ClN3O5

> <Exact Mass>
479.12

> <XLogP>
4.86

> <TPSA_NOPS>
88.2

> <s_m_source_file>
ligprep_h3d.sdf

> <i_m_source_file_index>
5547

> <i_lp_mmshare_version>
55123

> <i_f3d_flags>
0

> <s_epik_input>
W0NIM11PYyhbY0hdMSljKE9bQ0gzXSlbY0hdYyhjMTIpYyg9TyluKC1jM1tjSF1bY0hdYyhbQ0gzXSlbY0hdW2NIXTMpYyg9TyluMltDSDJdQyg9TylbTkhdYzRbY0hdW2NIXVtjSF1jKENsKVtjSF00

> <s_epik_cmdline>
J2VwaWtfcHl0aG9uJywgJy1waHQnLCAnMC41JywgJy1waCcsICc3LjUnLCAnLXRuJywgJzgnLCAnLW1hJywgJzUwMCcsICctaW1hZScsICc8aW5maWxlLm1hZT4nLCAnLW9tYWUnLCAnPG91dGZpbGUubWFlPic=

> <r_lp_tautomer_probability>
1

> <r_epik_Ionization_Penalty>
5.46846e-07

> <r_epik_Ionization_Penalty_Charging>
1.87707e-08

> <r_epik_Ionization_Penalty_Neutral>
5.28075e-07

> <r_epik_State_Penalty>
-0

> <r_epik_Charging_Adjusted_Penalty>
1.87707e-08

> <i_epik_Tot_Q>
0

> <i_epik_Tot_abs_Q>
0

> <s_lp_Force_Field>
S-OPLS

> <r_lp_Energy>
69.9827

> <b_lp_Chiralities_Consistent>
1

> <s_lp_Variant>
ligprep_h3d.sdf:5547-1

> <ROCS_ShapeQuery>
_7L13

> <ROCS_TanimotoCombo>
0.786 

> <ROCS_ShapeTanimoto>
0.669 

> <ROCS_ColorTanimoto>
0.118 

> <ROCS_RefTversky>
0.780 

> <ROCS_RefColorTversky>
0.221 

> <ROCS_RefTverskyCombo>
1.001 

> <ROCS_FitTversky>
0.824 

> <ROCS_FitColorTversky>
0.201 

> <ROCS_FitTverskyCombo>
1.025 

> <ROCS_ColorScore>
-2.002

> <ROCS_Overlap>
1291.469

> <ROCS_Rank>
362                 

$$$$
ligprep_h3d.sdf:5157_694
  -OEChem-08212117123D

 76 82  0     0  0  0  0  0  0999 V2000
  -19.3267   -6.1111  -34.7441 C   0  0  0  0  0  0  0  0  0  0  0  0
  -20.1481   -4.9946  -34.9002 C   0  0  0  0  0  0  0  0  0  0  0  0
  -19.3965   -6.8706  -33.5762 C   0  0  0  0  0  0  0  0  0  0  0  0
  -21.0393   -4.6375  -33.8883 C   0  0  0  0  0  0  0  0  0  0  0  0
  -20.2876   -6.5135  -32.5643 C   0  0  0  0  0  0  0  0  0  0  0  0
  -23.5371   -3.9433  -27.7385 C   0  0  0  0  0  0  0  0  0  0  0  0
  -20.8576   -4.4775  -28.4465 C   0  0  0  0  0  0  0  0  0  0  0  0
  -27.6228   -4.3230  -21.5889 C   0  0  0  0  0  0  0  0  0  0  0  0
  -15.1843   -6.1638  -25.7966 C   0  0  0  0  0  0  0  0  0  0  0  0
  -26.6397   -6.1356  -20.8251 C   0  0  0  0  0  0  0  0  0  0  0  0
  -14.6352   -5.0342  -26.3445 C   0  0  0  0  0  0  0  0  0  0  0  0
  -22.5962   -4.2550  -26.7648 C   0  0  0  0  0  0  0  0  0  0  0  0
  -21.1090   -5.3969  -32.7203 C   0  0  0  0  0  0  0  0  0  0  0  0
  -26.3608   -4.8808  -21.3092 C   0  0  0  0  0  0  0  0  0  0  0  0
  -21.2727   -4.5180  -27.1234 C   0  0  0  0  0  0  0  0  0  0  0  0
  -23.1335   -3.8989  -29.0744 C   0  0  0  0  0  0  0  0  0  0  0  0
  -21.8027   -4.1643  -29.4255 C   0  0  0  0  0  0  0  0  0  0  0  0
  -16.8276   -4.7599  -26.2936 C   0  0  0  0  0  0  0  0  0  0  0  0
  -18.2306   -4.2766  -26.3992 C   0  0  0  0  0  0  0  0  0  0  0  0
  -18.8029   -6.4147  -25.4000 C   0  0  0  0  0  0  0  0  0  0  0  0
  -17.5240   -6.8275  -25.3157 C   0  0  0  0  0  0  0  0  0  0  0  0
  -19.1980   -5.1071  -25.9529 C   0  0  0  0  0  0  0  0  0  0  0  0
  -23.8119   -5.4714  -24.9194 C   0  0  0  0  0  0  0  0  0  0  0  0
  -23.2621   -3.0181  -24.6692 C   0  0  0  0  0  0  0  0  0  0  0  0
  -21.3643   -4.7319  -24.7928 C   0  0  0  0  0  0  0  0  0  0  0  0
  -24.1114   -5.5472  -23.4265 C   0  0  0  0  0  0  0  0  0  0  0  0
  -23.5653   -3.1116  -23.1782 C   0  0  0  0  0  0  0  0  0  0  0  0
  -22.8016   -4.3614  -25.2668 C   0  0  0  0  0  0  0  0  0  0  0  0
  -28.7682   -7.3959  -20.4254 C   0  0  0  0  0  0  0  0  0  0  0  0
  -24.2055   -2.2147  -30.3666 C   0  0  0  0  0  0  0  0  0  0  0  0
  -25.0129   -4.2500  -21.4990 C   0  0  0  0  0  0  0  0  0  0  0  0
  -22.0673   -5.0132  -31.6312 C   0  0  0  0  0  0  0  0  0  0  0  0
  -28.6285   -5.1552  -21.3061 N   0  0  0  0  0  0  0  0  0  0  0  0
  -16.5496   -5.9705  -25.7749 N   0  0  0  0  0  0  0  0  0  0  0  0
  -27.9988   -6.2488  -20.8438 N   0  0  0  0  0  0  0  0  0  0  0  0
  -15.6743   -4.1835  -26.6419 N   0  3  0  0  0  0  0  0  0  0  0  0
  -20.5127   -4.8058  -25.9849 N   0  0  0  0  0  0  0  0  0  0  0  0
  -24.5835   -4.1993  -22.9397 N   0  3  0  0  0  0  0  0  0  0  0  0
  -24.0498   -3.5929  -30.0364 O   0  0  0  0  0  0  0  0  0  0  0  0
  -21.4163   -4.1183  -30.7326 O   0  0  0  0  0  0  0  0  0  0  0  0
  -18.6338   -6.3898  -35.5327 H   0  0  0  0  0  0  0  0  0  0  0  0
  -20.0947   -4.4038  -35.8100 H   0  0  0  0  0  0  0  0  0  0  0  0
  -18.7579   -7.7405  -33.4548 H   0  0  0  0  0  0  0  0  0  0  0  0
  -21.6753   -3.7659  -34.0185 H   0  0  0  0  0  0  0  0  0  0  0  0
  -20.3350   -7.1110  -31.6577 H   0  0  0  0  0  0  0  0  0  0  0  0
  -24.5684   -3.7373  -27.4688 H   0  0  0  0  0  0  0  0  0  0  0  0
  -19.8310   -4.6800  -28.7318 H   0  0  0  0  0  0  0  0  0  0  0  0
  -27.8539   -3.3455  -21.9878 H   0  0  0  0  0  0  0  0  0  0  0  0
  -14.7880   -7.0862  -25.4161 H   0  0  0  0  0  0  0  0  0  0  0  0
  -26.0026   -6.9380  -20.4787 H   0  0  0  0  0  0  0  0  0  0  0  0
  -13.6422   -4.7006  -26.5722 H   0  0  0  0  0  0  0  0  0  0  0  0
  -18.4312   -3.2991  -26.8200 H   0  0  0  0  0  0  0  0  0  0  0  0
  -19.5939   -7.0697  -25.0456 H   0  0  0  0  0  0  0  0  0  0  0  0
  -17.2233   -7.7855  -24.9117 H   0  0  0  0  0  0  0  0  0  0  0  0
  -23.4453   -6.4473  -25.2637 H   0  0  0  0  0  0  0  0  0  0  0  0
  -24.7563   -5.3020  -25.4541 H   0  0  0  0  0  0  0  0  0  0  0  0
  -24.1657   -2.6661  -25.1853 H   0  0  0  0  0  0  0  0  0  0  0  0
  -22.5031   -2.2425  -24.8351 H   0  0  0  0  0  0  0  0  0  0  0  0
  -20.9574   -3.9824  -24.1032 H   0  0  0  0  0  0  0  0  0  0  0  0
  -21.3436   -5.6973  -24.2725 H   0  0  0  0  0  0  0  0  0  0  0  0
  -24.9166   -6.2644  -23.2354 H   0  0  0  0  0  0  0  0  0  0  0  0
  -23.2322   -5.8258  -22.8365 H   0  0  0  0  0  0  0  0  0  0  0  0
  -22.6769   -3.3502  -22.5843 H   0  0  0  0  0  0  0  0  0  0  0  0
  -23.9991   -2.1728  -22.8181 H   0  0  0  0  0  0  0  0  0  0  0  0
  -28.9933   -7.2813  -19.3618 H   0  0  0  0  0  0  0  0  0  0  0  0
  -29.6921   -7.4469  -21.0083 H   0  0  0  0  0  0  0  0  0  0  0  0
  -28.1851   -8.3047  -20.5982 H   0  0  0  0  0  0  0  0  0  0  0  0
  -24.9650   -2.1093  -31.1452 H   0  0  0  0  0  0  0  0  0  0  0  0
  -23.2513   -1.8129  -30.7167 H   0  0  0  0  0  0  0  0  0  0  0  0
  -24.5231   -1.6691  -29.4749 H   0  0  0  0  0  0  0  0  0  0  0  0
  -25.0034   -3.2182  -21.1315 H   0  0  0  0  0  0  0  0  0  0  0  0
  -24.2374   -4.8037  -20.9589 H   0  0  0  0  0  0  0  0  0  0  0  0
  -22.9542   -4.5214  -32.0451 H   0  0  0  0  0  0  0  0  0  0  0  0
  -22.4005   -5.8982  -31.0784 H   0  0  0  0  0  0  0  0  0  0  0  0
  -15.5795   -3.2624  -27.0608 H   0  0  0  0  0  0  0  0  0  0  0  0
  -25.4229   -3.9556  -23.4834 H   0  0  0  0  0  0  0  0  0  0  0  0
  1  2  2  0  0  0  0
  1  3  1  0  0  0  0
  2  4  1  0  0  0  0
  3  5  2  0  0  0  0
  4 13  2  0  0  0  0
  5 13  1  0  0  0  0
  6 12  1  0  0  0  0
  6 16  2  0  0  0  0
  7 15  1  0  0  0  0
  7 17  2  0  0  0  0
  8 14  1  0  0  0  0
  8 33  2  0  0  0  0
  9 11  2  0  0  0  0
  9 34  1  0  0  0  0
 10 14  2  0  0  0  0
 10 35  1  0  0  0  0
 11 36  1  0  0  0  0
 12 15  2  0  0  0  0
 12 28  1  0  0  0  0
 13 32  1  0  0  0  0
 14 31  1  0  0  0  0
 15 37  1  0  0  0  0
 16 17  1  0  0  0  0
 16 39  1  0  0  0  0
 17 40  1  0  0  0  0
 18 19  1  0  0  0  0
 18 34  1  0  0  0  0
 18 36  2  0  0  0  0
 19 22  2  0  0  0  0
 20 21  2  0  0  0  0
 20 22  1  0  0  0  0
 21 34  1  0  0  0  0
 22 37  1  0  0  0  0
 23 26  1  0  0  0  0
 23 28  1  0  0  0  0
 24 27  1  0  0  0  0
 24 28  1  0  0  0  0
 25 28  1  0  0  0  0
 25 37  1  0  0  0  0
 26 38  1  0  0  0  0
 27 38  1  0  0  0  0
 29 35  1  0  0  0  0
 30 39  1  0  0  0  0
 31 38  1  0  0  0  0
 32 40  1  0  0  0  0
 33 35  1  0  0  0  0
  1 41  1  0  0  0  0
  2 42  1  0  0  0  0
  3 43  1  0  0  0  0
  4 44  1  0  0  0  0
  5 45  1  0  0  0  0
  6 46  1  0  0  0  0
  7 47  1  0  0  0  0
  8 48  1  0  0  0  0
  9 49  1  0  0  0  0
 10 50  1  0  0  0  0
 11 51  1  0  0  0  0
 19 52  1  0  0  0  0
 20 53  1  0  0  0  0
 21 54  1  0  0  0  0
 23 55  1  0  0  0  0
 23 56  1  0  0  0  0
 24 57  1  0  0  0  0
 24 58  1  0  0  0  0
 25 59  1  0  0  0  0
 25 60  1  0  0  0  0
 26 61  1  0  0  0  0
 26 62  1  0  0  0  0
 27 63  1  0  0  0  0
 27 64  1  0  0  0  0
 29 65  1  0  0  0  0
 29 66  1  0  0  0  0
 29 67  1  0  0  0  0
 30 68  1  0  0  0  0
 30 69  1  0  0  0  0
 30 70  1  0  0  0  0
 31 71  1  0  0  0  0
 31 72  1  0  0  0  0
 32 73  1  0  0  0  0
 32 74  1  0  0  0  0
 36 75  1  0  0  0  0
 38 76  1  0  0  0  0
M  CHG  2  36   1  38   1
M  END
> <SMILES>
COc1cc2c(cc1OCc1ccccc1)N(CC12CCN(CC1)Cc1cnn(c1)C)c1ccn2ccnc2c1

> <FORMATTED_ID>
H3D-013972

> <MOLFORMULA>
C32H34N6O2

> <Exact Mass>
534.27

> <XLogP>
6.46

> <TPSA_NOPS>
60.1

> <s_m_source_file>
ligprep_h3d.sdf

> <i_m_source_file_index>
5157

> <i_lp_mmshare_version>
55123

> <i_f3d_flags>
0

> <s_epik_input>
W2NIXTFbY0hdW2NIXVtjSF1bY0hdYzFbQ0gyXU9jKGMoW2NIXTIpT1tDSDNdKVtjSF1jKE4oW0NIMl0zKWMoW2NIXVtjSF00KVtjSF1jKG40NSluW2NIXVtjSF01KWMyQzM2W0NIMl1bQ0gyXU4oW0NIMl1bQ0gyXTYpW0NIMl1jN1tjSF1ubihbY0hdNylbQ0gzXQ==

> <s_epik_cmdline>
J2VwaWtfcHl0aG9uJywgJy1waHQnLCAnMC41JywgJy1waCcsICc3LjUnLCAnLXRuJywgJzgnLCAnLW1hJywgJzUwMCcsICctaW1hZScsICc8aW5maWxlLm1hZT4nLCAnLW9tYWUnLCAnPG91dGZpbGUubWFlPic=

> <r_lp_tautomer_probability>
1

> <r_epik_Ionization_Penalty>
0.495331

> <r_epik_Ionization_Penalty_Charging>
0.0979262

> <r_epik_Ionization_Penalty_Neutral>
0.397405

> <r_epik_State_Penalty>
0.460707

> <r_epik_Charging_Adjusted_Penalty>
0.558634

> <i_epik_Tot_Q>
2

> <i_epik_Tot_abs_Q>
2

> <s_lp_Force_Field>
S-OPLS

> <r_lp_Energy>
78.0165

> <b_lp_Chiralities_Consistent>
1

> <s_lp_Variant>
ligprep_h3d.sdf:5157-1

> <ROCS_ShapeQuery>
_7L13

> <ROCS_TanimotoCombo>
0.671 

> <ROCS_ShapeTanimoto>
0.584 

> <ROCS_ColorTanimoto>
0.087 

> <ROCS_RefTversky>
0.780 

> <ROCS_RefColorTversky>
0.199 

> <ROCS_RefTverskyCombo>
0.979 

> <ROCS_FitTversky>
0.700 

> <ROCS_FitColorTversky>
0.134 

> <ROCS_FitTverskyCombo>
0.833 

> <ROCS_ColorScore>
-1.844

> <ROCS_Overlap>
1303.568

> <ROCS_Rank>
363                 

$$$$
ligprep_h3d.sdf:2641_1766
  -OEChem-08212117123D

 62 65  0     0  0  0  0  0  0999 V2000
  -25.6387   -4.9903  -23.5999 C   0  0  0  0  0  0  0  0  0  0  0  0
  -24.6464   -4.3380  -22.8645 C   0  0  0  0  0  0  0  0  0  0  0  0
  -19.9931   -5.3653  -25.7620 C   0  0  0  0  0  0  0  0  0  0  0  0
  -18.7325   -3.3522  -26.2038 C   0  0  0  0  0  0  0  0  0  0  0  0
  -18.8847   -6.1363  -26.1123 C   0  0  0  0  0  0  0  0  0  0  0  0
  -17.6241   -4.1231  -26.5540 C   0  0  0  0  0  0  0  0  0  0  0  0
  -25.4886   -5.2140  -24.9743 C   0  0  0  0  0  0  0  0  0  0  0  0
  -23.4706   -3.8864  -23.4730 C   0  0  0  0  0  0  0  0  0  0  0  0
  -22.6768   -3.5881  -32.1743 C   0  0  0  0  0  0  0  0  0  0  0  0
  -22.9241   -2.8581  -29.8845 C   0  0  0  0  0  0  0  0  0  0  0  0
  -19.9170   -3.9732  -25.8078 C   0  0  0  0  0  0  0  0  0  0  0  0
  -17.7002   -5.5152  -26.5083 C   0  0  0  0  0  0  0  0  0  0  0  0
  -21.9091   -4.6710  -31.7461 C   0  0  0  0  0  0  0  0  0  0  0  0
  -24.3137   -4.7667  -25.6020 C   0  0  0  0  0  0  0  0  0  0  0  0
  -23.3427   -4.1200  -24.8426 C   0  0  0  0  0  0  0  0  0  0  0  0
  -22.1564   -3.9411  -29.4563 C   0  0  0  0  0  0  0  0  0  0  0  0
  -21.6489   -4.8475  -30.3872 C   0  0  0  0  0  0  0  0  0  0  0  0
  -23.1843   -2.6815  -31.2435 C   0  0  0  0  0  0  0  0  0  0  0  0
  -22.7436   -4.2833  -26.9660 C   0  0  0  0  0  0  0  0  0  0  0  0
  -17.8517   -6.1878  -34.0931 C   0  0  0  0  0  0  0  0  0  0  0  0
  -19.6361   -7.8513  -33.4557 C   0  0  0  0  0  0  0  0  0  0  0  0
  -20.0477   -6.2180  -35.3319 C   0  0  0  0  0  0  0  0  0  0  0  0
  -21.1122   -3.1407  -25.4297 C   0  0  0  0  0  0  0  0  0  0  0  0
  -21.3714   -5.6348  -32.7625 C   0  0  0  0  0  0  0  0  0  0  0  0
  -16.5150   -6.3402  -26.8811 C   0  0  0  0  0  0  0  0  0  0  0  0
  -19.3539   -6.4479  -33.9901 C   0  0  0  0  0  0  0  0  0  0  0  0
  -23.9240   -4.8591  -26.9185 N   0  0  0  0  0  0  0  0  0  0  0  0
  -22.3501   -3.8221  -25.7406 N   0  0  0  0  0  0  0  0  0  0  0  0
  -21.8991   -4.1053  -28.0776 N   0  0  0  0  0  0  0  0  0  0  0  0
  -19.9193   -5.4664  -33.0117 N   0  3  0  0  0  0  0  0  0  0  0  0
  -20.8957   -5.9068  -29.9713 O   0  0  0  0  0  0  0  0  0  0  0  0
  -16.7332   -7.6854  -26.7882 F   0  0  0  0  0  0  0  0  0  0  0  0
  -16.0883   -6.1364  -28.1625 F   0  0  0  0  0  0  0  0  0  0  0  0
  -15.4312   -6.0898  -26.0901 F   0  0  0  0  0  0  0  0  0  0  0  0
  -24.1304   -1.3441  -31.7719 Cl  0  0  0  0  0  0  0  0  0  0  0  0
  -26.5415   -5.3298  -23.0985 H   0  0  0  0  0  0  0  0  0  0  0  0
  -24.7894   -4.1784  -21.7986 H   0  0  0  0  0  0  0  0  0  0  0  0
  -20.9121   -5.8578  -25.4549 H   0  0  0  0  0  0  0  0  0  0  0  0
  -18.6641   -2.2681  -26.2409 H   0  0  0  0  0  0  0  0  0  0  0  0
  -18.9528   -7.2201  -26.0719 H   0  0  0  0  0  0  0  0  0  0  0  0
  -16.7049   -3.6314  -26.8614 H   0  0  0  0  0  0  0  0  0  0  0  0
  -26.2653   -5.7216  -25.5370 H   0  0  0  0  0  0  0  0  0  0  0  0
  -22.7010   -3.3806  -22.9011 H   0  0  0  0  0  0  0  0  0  0  0  0
  -22.8769   -3.4538  -33.2350 H   0  0  0  0  0  0  0  0  0  0  0  0
  -23.3186   -2.1523  -29.1565 H   0  0  0  0  0  0  0  0  0  0  0  0
  -17.6456   -5.1818  -34.4763 H   0  0  0  0  0  0  0  0  0  0  0  0
  -17.3719   -6.2742  -33.1119 H   0  0  0  0  0  0  0  0  0  0  0  0
  -17.3668   -6.9056  -34.7646 H   0  0  0  0  0  0  0  0  0  0  0  0
  -20.7128   -8.0415  -33.3804 H   0  0  0  0  0  0  0  0  0  0  0  0
  -19.2024   -7.9946  -32.4594 H   0  0  0  0  0  0  0  0  0  0  0  0
  -19.2095   -8.6143  -34.1164 H   0  0  0  0  0  0  0  0  0  0  0  0
  -21.1256   -6.4037  -35.2619 H   0  0  0  0  0  0  0  0  0  0  0  0
  -19.9100   -5.1852  -35.6711 H   0  0  0  0  0  0  0  0  0  0  0  0
  -19.6457   -6.8791  -36.1083 H   0  0  0  0  0  0  0  0  0  0  0  0
  -21.1090   -2.9070  -24.3581 H   0  0  0  0  0  0  0  0  0  0  0  0
  -21.1083   -2.1793  -25.9576 H   0  0  0  0  0  0  0  0  0  0  0  0
  -21.5171   -6.6716  -32.4408 H   0  0  0  0  0  0  0  0  0  0  0  0
  -21.8728   -5.5115  -33.7285 H   0  0  0  0  0  0  0  0  0  0  0  0
  -20.9110   -4.0913  -27.8456 H   0  0  0  0  0  0  0  0  0  0  0  0
  -19.7371   -4.5178  -33.3577 H   0  0  0  0  0  0  0  0  0  0  0  0
  -19.4060   -5.5530  -32.1275 H   0  0  0  0  0  0  0  0  0  0  0  0
  -20.6193   -6.4382  -30.7333 H   0  0  0  0  0  0  0  0  0  0  0  0
  1  2  2  0  0  0  0
  1  7  1  0  0  0  0
  2  8  1  0  0  0  0
  3  5  1  0  0  0  0
  3 11  2  0  0  0  0
  4  6  2  0  0  0  0
  4 11  1  0  0  0  0
  5 12  2  0  0  0  0
  6 12  1  0  0  0  0
  7 14  2  0  0  0  0
  8 15  2  0  0  0  0
  9 13  2  0  0  0  0
  9 18  1  0  0  0  0
 10 16  1  0  0  0  0
 10 18  2  0  0  0  0
 11 23  1  0  0  0  0
 12 25  1  0  0  0  0
 13 17  1  0  0  0  0
 13 24  1  0  0  0  0
 14 15  1  0  0  0  0
 14 27  1  0  0  0  0
 15 28  1  0  0  0  0
 16 17  2  0  0  0  0
 16 29  1  0  0  0  0
 17 31  1  0  0  0  0
 18 35  1  0  0  0  0
 19 27  2  0  0  0  0
 19 28  1  0  0  0  0
 19 29  1  0  0  0  0
 20 26  1  0  0  0  0
 21 26  1  0  0  0  0
 22 26  1  0  0  0  0
 23 28  1  0  0  0  0
 24 30  1  0  0  0  0
 25 32  1  0  0  0  0
 25 33  1  0  0  0  0
 25 34  1  0  0  0  0
 26 30  1  0  0  0  0
  1 36  1  0  0  0  0
  2 37  1  0  0  0  0
  3 38  1  0  0  0  0
  4 39  1  0  0  0  0
  5 40  1  0  0  0  0
  6 41  1  0  0  0  0
  7 42  1  0  0  0  0
  8 43  1  0  0  0  0
  9 44  1  0  0  0  0
 10 45  1  0  0  0  0
 20 46  1  0  0  0  0
 20 47  1  0  0  0  0
 20 48  1  0  0  0  0
 21 49  1  0  0  0  0
 21 50  1  0  0  0  0
 21 51  1  0  0  0  0
 22 52  1  0  0  0  0
 22 53  1  0  0  0  0
 22 54  1  0  0  0  0
 23 55  1  0  0  0  0
 23 56  1  0  0  0  0
 24 57  1  0  0  0  0
 24 58  1  0  0  0  0
 29 59  1  0  0  0  0
 30 60  1  0  0  0  0
 30 61  1  0  0  0  0
 31 62  1  0  0  0  0
M  CHG  1  30   1
M  END
> <SMILES>
CC(C)(C)NCc1cc(cc(c1O)Nc1nc2ccccc2n1Cc1ccc(cc1)C(F)(F)F)Cl

> <FORMATTED_ID>
H3D-007329

> <MOLFORMULA>
C26H26ClF3N4O

> <Exact Mass>
502.17

> <XLogP>
8.51

> <TPSA_NOPS>
62.1

> <s_m_source_file>
ligprep_h3d.sdf

> <i_m_source_file_index>
2641

> <i_lp_mmshare_version>
55123

> <i_f3d_flags>
0

> <s_epik_input>
W0NIM11DKFtDSDNdKShbQ0gzXSlbTkhdW0NIMl1jMVtjSF1jKENsKVtjSF1jKGMxW09IXSlbTkhdYyhuMiluKGMoYzIzKVtjSF1bY0hdW2NIXVtjSF0zKVtDSDJdYzRbY0hdW2NIXWMoQyhGKShGKUYpW2NIXVtjSF00

> <s_epik_cmdline>
J2VwaWtfcHl0aG9uJywgJy1waHQnLCAnMC41JywgJy1waCcsICc3LjUnLCAnLXRuJywgJzgnLCAnLW1hJywgJzUwMCcsICctaW1hZScsICc8aW5maWxlLm1hZT4nLCAnLW9tYWUnLCAnPG91dGZpbGUubWFlPic=

> <r_lp_tautomer_probability>
1

> <r_epik_Ionization_Penalty>
0.15722

> <r_epik_Ionization_Penalty_Charging>
0.0147642

> <r_epik_Ionization_Penalty_Neutral>
0.142456

> <r_epik_State_Penalty>
-0

> <r_epik_Charging_Adjusted_Penalty>
0.0147642

> <i_epik_Tot_Q>
1

> <i_epik_Tot_abs_Q>
1

> <s_lp_Force_Field>
S-OPLS

> <r_lp_Energy>
39.3508

> <b_lp_Chiralities_Consistent>
1

> <s_lp_Variant>
ligprep_h3d.sdf:2641-1

> <ROCS_ShapeQuery>
_7L13

> <ROCS_TanimotoCombo>
0.763 

> <ROCS_ShapeTanimoto>
0.658 

> <ROCS_ColorTanimoto>
0.104 

> <ROCS_RefTversky>
0.780 

> <ROCS_RefColorTversky>
0.208 

> <ROCS_RefTverskyCombo>
0.988 

> <ROCS_FitTversky>
0.808 

> <ROCS_FitColorTversky>
0.173 

> <ROCS_FitTverskyCombo>
0.982 

> <ROCS_ColorScore>
-1.894

> <ROCS_Overlap>
1292.659

> <ROCS_Rank>
364                 

$$$$
ligprep_h3d.sdf:4243_1916
  -OEChem-08212117123D

 62 66  0     1  0  0  0  0  0999 V2000
  -20.5708   -4.7868  -25.4215 C   0  0  0  0  0  0  0  0  0  0  0  0
  -22.4054   -3.5768  -26.3983 C   0  0  0  0  0  0  0  0  0  0  0  0
  -21.6435   -4.5671  -30.4724 C   0  0  0  0  0  0  0  0  0  0  0  0
  -20.0118   -4.8544  -26.6875 C   0  0  0  0  0  0  0  0  0  0  0  0
  -23.1455   -3.0073  -32.2783 C   0  0  0  0  0  0  0  0  0  0  0  0
  -21.7906   -4.1341  -25.2827 C   0  0  0  0  0  0  0  0  0  0  0  0
  -22.4145   -4.1007  -32.7438 C   0  0  0  0  0  0  0  0  0  0  0  0
  -21.6827   -4.8524  -31.8302 C   0  0  0  0  0  0  0  0  0  0  0  0
  -21.7642   -3.6983  -27.6206 C   0  0  0  0  0  0  0  0  0  0  0  0
  -22.4020   -3.4629  -30.1108 C   0  0  0  0  0  0  0  0  0  0  0  0
  -21.4763   -5.6394  -33.8868 C   0  0  0  0  0  0  0  0  0  0  0  0
  -22.4265   -4.0348  -23.9625 C   0  0  0  0  0  0  0  0  0  0  0  0
  -19.7195   -6.0272  -35.6686 C   0  0  0  0  0  0  0  0  0  0  0  0
  -20.7977   -8.0024  -34.4927 C   0  0  0  0  0  0  0  0  0  0  0  0
  -19.2533   -6.9537  -36.7901 C   0  0  0  0  0  0  0  0  0  0  0  0
  -20.3285   -8.9237  -35.6170 C   0  0  0  0  0  0  0  0  0  0  0  0
  -24.4661   -5.2890  -24.8384 C   0  0  0  0  0  0  0  0  0  0  0  0
  -24.3310   -4.5848  -22.4836 C   0  0  0  0  0  0  0  0  0  0  0  0
  -20.9968   -6.5603  -34.9942 C   0  0  0  0  0  0  0  0  0  0  0  0
  -25.9032   -4.7626  -24.8612 C   0  0  1  0  0  0  0  0  0  0  0  0
  -25.7671   -4.0749  -22.5974 C   0  0  2  0  0  0  0  0  0  0  0  0
  -19.0839   -8.3814  -36.2989 C   0  0  0  0  0  0  0  0  0  0  0  0
  -26.7668   -5.5691  -25.8201 C   0  0  0  0  0  0  0  0  0  0  0  0
  -26.4951   -4.1818  -21.2655 C   0  0  0  0  0  0  0  0  0  0  0  0
  -20.5791   -4.3251  -27.7946 N   0  0  0  0  0  0  0  0  0  0  0  0
  -23.1325   -2.6966  -30.9582 N   0  0  0  0  0  0  0  0  0  0  0  0
  -22.2750   -4.6035  -34.0161 N   0  0  0  0  0  0  0  0  0  0  0  0
  -21.0923   -5.8303  -32.5884 N   0  0  0  0  0  0  0  0  0  0  0  0
  -23.6926   -4.5991  -23.7988 N   0  0  0  0  0  0  0  0  0  0  0  0
  -22.4026   -3.1248  -28.7482 N   0  0  0  0  0  0  0  0  0  0  0  0
  -21.7812   -3.4574  -23.0889 O   0  0  0  0  0  0  0  0  0  0  0  0
  -26.4843   -4.8657  -23.5547 O   0  0  0  0  0  0  0  0  0  0  0  0
  -18.7564   -9.1822  -37.3436 F   0  0  0  0  0  0  0  0  0  0  0  0
  -18.0398   -8.4345  -35.4314 F   0  0  0  0  0  0  0  0  0  0  0  0
  -20.0647   -5.2328  -24.5720 H   0  0  0  0  0  0  0  0  0  0  0  0
  -23.3581   -3.0625  -26.3100 H   0  0  0  0  0  0  0  0  0  0  0  0
  -21.0724   -5.1595  -29.7693 H   0  0  0  0  0  0  0  0  0  0  0  0
  -19.0616   -5.3528  -26.8492 H   0  0  0  0  0  0  0  0  0  0  0  0
  -23.7396   -2.3696  -32.9206 H   0  0  0  0  0  0  0  0  0  0  0  0
  -18.9179   -5.9258  -34.9264 H   0  0  0  0  0  0  0  0  0  0  0  0
  -19.8984   -5.0255  -36.0760 H   0  0  0  0  0  0  0  0  0  0  0  0
  -21.7343   -8.3883  -34.0740 H   0  0  0  0  0  0  0  0  0  0  0  0
  -20.0604   -8.0184  -33.6804 H   0  0  0  0  0  0  0  0  0  0  0  0
  -19.9727   -6.9315  -37.6175 H   0  0  0  0  0  0  0  0  0  0  0  0
  -18.3013   -6.5882  -37.1916 H   0  0  0  0  0  0  0  0  0  0  0  0
  -20.1190   -9.9188  -35.2082 H   0  0  0  0  0  0  0  0  0  0  0  0
  -21.1285   -9.0497  -36.3563 H   0  0  0  0  0  0  0  0  0  0  0  0
  -24.4495   -6.3534  -24.5732 H   0  0  0  0  0  0  0  0  0  0  0  0
  -24.0056   -5.1814  -25.8239 H   0  0  0  0  0  0  0  0  0  0  0  0
  -23.7557   -3.9742  -21.7801 H   0  0  0  0  0  0  0  0  0  0  0  0
  -24.3147   -5.6206  -22.1227 H   0  0  0  0  0  0  0  0  0  0  0  0
  -21.8048   -6.5771  -35.7631 H   0  0  0  0  0  0  0  0  0  0  0  0
  -25.9193   -3.7098  -25.1753 H   0  0  0  0  0  0  0  0  0  0  0  0
  -25.7783   -3.0247  -22.9216 H   0  0  0  0  0  0  0  0  0  0  0  0
  -26.7674   -6.6201  -25.5293 H   0  0  0  0  0  0  0  0  0  0  0  0
  -26.3780   -5.4843  -26.8353 H   0  0  0  0  0  0  0  0  0  0  0  0
  -27.7920   -5.1977  -25.8027 H   0  0  0  0  0  0  0  0  0  0  0  0
  -26.4973   -5.2169  -20.9224 H   0  0  0  0  0  0  0  0  0  0  0  0
  -27.5262   -3.8443  -21.3747 H   0  0  0  0  0  0  0  0  0  0  0  0
  -25.9987   -3.5631  -20.5172 H   0  0  0  0  0  0  0  0  0  0  0  0
  -20.4843   -6.5621  -32.2448 H   0  0  0  0  0  0  0  0  0  0  0  0
  -22.9661   -2.3145  -28.5197 H   0  0  0  0  0  0  0  0  0  0  0  0
  1  4  1  0  0  0  0
  1  6  2  0  0  0  0
  2  6  1  0  0  0  0
  2  9  2  0  0  0  0
  3  8  1  0  0  0  0
  3 10  2  0  0  0  0
  4 25  2  0  0  0  0
  5  7  1  0  0  0  0
  5 26  2  0  0  0  0
  6 12  1  0  0  0  0
  7  8  2  0  0  0  0
  7 27  1  0  0  0  0
  8 28  1  0  0  0  0
  9 25  1  0  0  0  0
  9 30  1  0  0  0  0
 10 26  1  0  0  0  0
 10 30  1  0  0  0  0
 11 19  1  0  0  0  0
 11 27  2  0  0  0  0
 11 28  1  0  0  0  0
 12 29  1  0  0  0  0
 12 31  2  0  0  0  0
 13 15  1  0  0  0  0
 13 19  1  0  0  0  0
 14 16  1  0  0  0  0
 14 19  1  0  0  0  0
 15 22  1  0  0  0  0
 16 22  1  0  0  0  0
 17 20  1  0  0  0  0
 17 29  1  0  0  0  0
 18 21  1  0  0  0  0
 18 29  1  0  0  0  0
 20 23  1  0  0  0  0
 20 32  1  0  0  0  0
 21 24  1  0  0  0  0
 21 32  1  0  0  0  0
 22 33  1  0  0  0  0
 22 34  1  0  0  0  0
  1 35  1  0  0  0  0
  2 36  1  0  0  0  0
  3 37  1  0  0  0  0
  4 38  1  0  0  0  0
  5 39  1  0  0  0  0
 13 40  1  0  0  0  0
 13 41  1  0  0  0  0
 14 42  1  0  0  0  0
 14 43  1  0  0  0  0
 15 44  1  0  0  0  0
 15 45  1  0  0  0  0
 16 46  1  0  0  0  0
 16 47  1  0  0  0  0
 17 48  1  0  0  0  0
 17 49  1  0  0  0  0
 18 50  1  0  0  0  0
 18 51  1  0  0  0  0
 19 52  1  0  0  0  0
 20 53  1  0  0  0  0
 21 54  1  0  0  0  0
 23 55  1  0  0  0  0
 23 56  1  0  0  0  0
 23 57  1  0  0  0  0
 24 58  1  0  0  0  0
 24 59  1  0  0  0  0
 24 60  1  0  0  0  0
 28 61  1  0  0  0  0
 30 62  1  0  0  0  0
M  END
> <SMILES>
CC1CN(CC(C)O1)C(=O)c1ccnc(c1)Nc1cc2[nH]c(nc2cn1)C1CCC(F)(F)CC1

> <FORMATTED_ID>
H3D-003266

> <MOLFORMULA>
C24H28F2N6O2

> <Exact Mass>
470.22

> <XLogP>
4.57

> <TPSA_NOPS>
96

> <s_m_source_file>
ligprep_h3d.sdf

> <i_m_source_file_index>
4243

> <i_lp_mmshare_version>
55123

> <i_f3d_flags>
0

> <s_epik_input>
W0NIM11bQ0BASF0xW0NIMl1OKFtDSDJdW0NAQEhdKE8xKVtDSDNdKUMoPU8pYzJbY0hdW2NIXW5jKFtjSF0yKVtOSF1jKFtjSF0zKVtuSF1bY0hdYyhjMzQpbmMobjQpW0NIXShbQ0gyXVtDSDJdNSlbQ0gyXVtDSDJdQzUoRilG

> <s_epik_cmdline>
J2VwaWtfcHl0aG9uJywgJy1waHQnLCAnMC41JywgJy1waCcsICc3LjUnLCAnLXRuJywgJzgnLCAnLW1hJywgJzUwMCcsICctaW1hZScsICc8aW5maWxlLm1hZT4nLCAnLW9tYWUnLCAnPG91dGZpbGUubWFlPic=

> <r_lp_tautomer_probability>
1

> <r_epik_Ionization_Penalty>
0.395571

> <r_epik_Ionization_Penalty_Charging>
0.395464

> <r_epik_Ionization_Penalty_Neutral>
0.000106629

> <r_epik_State_Penalty>
0.39305

> <r_epik_Charging_Adjusted_Penalty>
0.788515

> <i_epik_Tot_Q>
0

> <i_epik_Tot_abs_Q>
0

> <s_lp_Force_Field>
S-OPLS

> <r_lp_Energy>
45.8864

> <b_lp_Chiralities_Consistent>
1

> <s_lp_Variant>
ligprep_h3d.sdf:4243-1

> <ROCS_ShapeQuery>
_7L13

> <ROCS_TanimotoCombo>
0.865 

> <ROCS_ShapeTanimoto>
0.665 

> <ROCS_ColorTanimoto>
0.199 

> <ROCS_RefTversky>
0.780 

> <ROCS_RefColorTversky>
0.382 

> <ROCS_RefTverskyCombo>
1.162 

> <ROCS_FitTversky>
0.819 

> <ROCS_FitColorTversky>
0.294 

> <ROCS_FitTverskyCombo>
1.114 

> <ROCS_ColorScore>
-3.493

> <ROCS_Overlap>
1291.704

> <ROCS_Rank>
365                 

$$$$
ligprep_h3d.sdf:726_413
  -OEChem-08212117123D

 60 65  0     1  0  0  0  0  0999 V2000
  -20.9973   -5.1672  -29.4965 C   0  0  0  0  0  0  0  0  0  0  0  0
  -21.7540   -4.3945  -30.3800 C   0  0  0  0  0  0  0  0  0  0  0  0
  -21.1087   -4.9176  -28.1074 C   0  0  0  0  0  0  0  0  0  0  0  0
  -21.9867   -3.9425  -27.5777 C   0  0  0  0  0  0  0  0  0  0  0  0
  -22.5817   -3.4240  -29.8598 C   0  0  0  0  0  0  0  0  0  0  0  0
  -22.7272   -3.1629  -28.4971 C   0  0  0  0  0  0  0  0  0  0  0  0
  -21.9449   -4.2881  -31.7703 C   0  0  0  0  0  0  0  0  0  0  0  0
  -18.9021   -3.8500  -26.2350 C   0  0  0  0  0  0  0  0  0  0  0  0
  -19.2599   -6.0514  -24.9991 C   0  0  0  0  0  0  0  0  0  0  0  0
  -17.0708   -5.2125  -25.8214 C   0  0  0  0  0  0  0  0  0  0  0  0
  -20.2681   -5.7536  -27.1799 C   0  0  0  0  0  0  0  0  0  0  0  0
  -20.7262   -6.9583  -33.9953 C   0  0  0  0  0  0  0  0  0  0  0  0
  -21.3874   -6.5581  -32.6809 C   0  0  0  0  0  0  0  0  0  0  0  0
  -20.3733   -4.6110  -33.6973 C   0  0  0  0  0  0  0  0  0  0  0  0
  -23.0449   -2.7850  -25.6480 C   0  0  0  0  0  0  0  0  0  0  0  0
  -21.2104   -4.4666  -25.2308 C   0  0  2  0  0  0  0  0  0  0  0  0
  -19.6816   -5.8737  -34.2090 C   0  0  2  0  0  0  0  0  0  0  0  0
  -23.4181   -3.0938  -24.1952 C   0  0  1  0  0  0  0  0  0  0  0  0
  -21.0451   -3.5275  -24.0000 C   0  0  2  0  0  0  0  0  0  0  0  0
  -19.8902   -4.9881  -25.8877 C   0  0  2  0  0  0  0  0  0  0  0  0
  -24.4121   -4.2476  -24.0767 C   0  0  0  0  0  0  0  0  0  0  0  0
  -20.0895   -4.0010  -22.9120 C   0  0  0  0  0  0  0  0  0  0  0  0
  -19.2549   -7.0496  -36.1896 C   0  0  0  0  0  0  0  0  0  0  0  0
  -22.8181   -3.3283  -32.0900 N   0  0  0  0  0  0  0  0  0  0  0  0
  -17.6431   -4.2107  -26.4904 N   0  5  0  0  0  0  0  0  0  0  0  0
  -17.8803   -6.0498  -25.0559 N   0  0  0  0  0  0  0  0  0  0  0  0
  -22.0945   -3.7605  -26.1967 N   0  0  3  0  0  0  0  0  0  0  0  0
  -21.2806   -5.1014  -32.6637 N   0  0  0  0  0  0  0  0  0  0  0  0
  -19.3009   -2.6943  -26.3771 O   0  0  0  0  0  0  0  0  0  0  0  0
  -19.9023   -6.8792  -24.3569 O   0  0  0  0  0  0  0  0  0  0  0  0
  -15.8591   -5.4416  -25.8659 O   0  0  0  0  0  0  0  0  0  0  0  0
  -23.2185   -2.7810  -30.8766 O   0  0  0  0  0  0  0  0  0  0  0  0
  -22.3087   -3.3628  -23.3429 O   0  0  0  0  0  0  0  0  0  0  0  0
  -19.3443   -5.7705  -35.5780 O   0  0  0  0  0  0  0  0  0  0  0  0
  -23.4838   -2.1201  -28.1347 F   0  0  0  0  0  0  0  0  0  0  0  0
  -20.3286   -5.9384  -29.8679 H   0  0  0  0  0  0  0  0  0  0  0  0
  -20.8387   -6.6618  -26.9417 H   0  0  0  0  0  0  0  0  0  0  0  0
  -19.3603   -6.0851  -27.7010 H   0  0  0  0  0  0  0  0  0  0  0  0
  -20.2383   -7.9335  -33.8820 H   0  0  0  0  0  0  0  0  0  0  0  0
  -21.4558   -7.0149  -34.8085 H   0  0  0  0  0  0  0  0  0  0  0  0
  -22.4444   -6.8502  -32.6688 H   0  0  0  0  0  0  0  0  0  0  0  0
  -20.8835   -7.0190  -31.8241 H   0  0  0  0  0  0  0  0  0  0  0  0
  -19.6449   -3.9307  -33.2398 H   0  0  0  0  0  0  0  0  0  0  0  0
  -20.9161   -4.0847  -34.4910 H   0  0  0  0  0  0  0  0  0  0  0  0
  -23.9560   -2.8217  -26.2800 H   0  0  0  0  0  0  0  0  0  0  0  0
  -22.7234   -1.7328  -25.6927 H   0  0  0  0  0  0  0  0  0  0  0  0
  -21.7933   -5.3396  -24.8958 H   0  0  0  0  0  0  0  0  0  0  0  0
  -18.7544   -6.0941  -33.6407 H   0  0  0  0  0  0  0  0  0  0  0  0
  -23.9581   -2.1820  -23.7614 H   0  0  0  0  0  0  0  0  0  0  0  0
  -20.7050   -2.5236  -24.3121 H   0  0  0  0  0  0  0  0  0  0  0  0
  -23.9705   -5.1625  -24.4720 H   0  0  0  0  0  0  0  0  0  0  0  0
  -25.3170   -4.0198  -24.6401 H   0  0  0  0  0  0  0  0  0  0  0  0
  -24.6769   -4.4060  -23.0311 H   0  0  0  0  0  0  0  0  0  0  0  0
  -20.3806   -4.9927  -22.5658 H   0  0  0  0  0  0  0  0  0  0  0  0
  -20.1135   -3.3108  -22.0686 H   0  0  0  0  0  0  0  0  0  0  0  0
  -19.0729   -4.0470  -23.3028 H   0  0  0  0  0  0  0  0  0  0  0  0
  -18.9934   -6.9326  -37.2441 H   0  0  0  0  0  0  0  0  0  0  0  0
  -20.2130   -7.5670  -36.0959 H   0  0  0  0  0  0  0  0  0  0  0  0
  -18.4785   -7.6307  -35.6863 H   0  0  0  0  0  0  0  0  0  0  0  0
  -17.4032   -6.7338  -24.4763 H   0  0  0  0  0  0  0  0  0  0  0  0
  1  2  2  0  0  0  0
  1  3  1  0  0  0  0
  2  5  1  0  0  0  0
  2  7  1  0  0  0  0
  3  4  2  0  0  0  0
  3 11  1  0  0  0  0
  4  6  1  0  0  0  0
  4 27  1  0  0  0  0
  5  6  2  0  0  0  0
  5 32  1  0  0  0  0
  6 35  1  0  0  0  0
  7 24  2  0  0  0  0
  7 28  1  0  0  0  0
  8 20  1  0  0  0  0
  8 25  1  0  0  0  0
  8 29  2  0  0  0  0
  9 20  1  0  0  0  0
  9 26  1  0  0  0  0
  9 30  2  0  0  0  0
 10 25  1  0  0  0  0
 10 26  1  0  0  0  0
 10 31  2  0  0  0  0
 11 20  1  0  0  0  0
 12 13  1  0  0  0  0
 12 17  1  0  0  0  0
 13 28  1  0  0  0  0
 14 17  1  0  0  0  0
 14 28  1  0  0  0  0
 15 18  1  0  0  0  0
 15 27  1  0  0  0  0
 16 19  1  0  0  0  0
 16 20  1  0  0  0  0
 16 27  1  0  0  0  0
 17 34  1  0  0  0  0
 18 21  1  0  0  0  0
 18 33  1  0  0  0  0
 19 22  1  0  0  0  0
 19 33  1  0  0  0  0
 23 34  1  0  0  0  0
 24 32  1  0  0  0  0
  1 36  1  0  0  0  0
 11 37  1  0  0  0  0
 11 38  1  0  0  0  0
 12 39  1  0  0  0  0
 12 40  1  0  0  0  0
 13 41  1  0  0  0  0
 13 42  1  0  0  0  0
 14 43  1  0  0  0  0
 14 44  1  0  0  0  0
 15 45  1  0  0  0  0
 15 46  1  0  0  0  0
 16 47  1  0  0  0  0
 17 48  1  0  0  0  0
 18 49  1  0  0  0  0
 19 50  1  0  0  0  0
 21 51  1  0  0  0  0
 21 52  1  0  0  0  0
 21 53  1  0  0  0  0
 22 54  1  0  0  0  0
 22 55  1  0  0  0  0
 22 56  1  0  0  0  0
 23 57  1  0  0  0  0
 23 58  1  0  0  0  0
 23 59  1  0  0  0  0
 26 60  1  0  0  0  0
M  CHG  1  25  -1
M  END
> <SMILES>
CO[C@@H]1CCN(C1)c1noc2c(c3c(cc12)CC1([C@H]2[C@H](C)O[C@H](C)CN23)C(=O)NC(=O)NC1=O)F

> <FORMATTED_ID>
H3D-004956

> <MOLFORMULA>
C23H26FN5O6

> <Exact Mass>
487.19

> <XLogP>
0.55

> <TPSA_NOPS>
126.5

> <s_m_source_file>
ligprep_h3d.sdf

> <i_m_source_file_index>
726

> <i_lp_mmshare_version>
55123

> <i_f3d_flags>
0

> <s_epik_input>
W0NIM11PW0NAQEhdMVtDSDJdW0NIMl1OKFtDSDJdMSljMm5vYyhjM0YpYzJbY0hdYyhbQ0gyXTQpYzNOKFtDSDJdW0NAQEhdKFtDSDNdKU9bQ0BIXTVbQ0gzXSlbQ0BIXTVDNDZDKD1PKVtOSF1DKD1PKVtOSF1DNj1P

> <s_epik_cmdline>
J2VwaWtfcHl0aG9uJywgJy1waHQnLCAnMC41JywgJy1waCcsICc3LjUnLCAnLXRuJywgJzgnLCAnLW1hJywgJzUwMCcsICctaW1hZScsICc8aW5maWxlLm1hZT4nLCAnLW9tYWUnLCAnPG91dGZpbGUubWFlPic=

> <r_lp_tautomer_probability>
1

> <r_epik_Ionization_Penalty>
0.455393

> <r_epik_Ionization_Penalty_Charging>
0.455373

> <r_epik_Ionization_Penalty_Neutral>
1.99137e-05

> <r_epik_State_Penalty>
0.458483

> <r_epik_Charging_Adjusted_Penalty>
0.913857

> <i_epik_Tot_Q>
-1

> <i_epik_Tot_abs_Q>
1

> <s_lp_Force_Field>
S-OPLS

> <r_lp_Energy>
54.512

> <b_lp_Chiralities_Consistent>
1

> <s_lp_Variant>
ligprep_h3d.sdf:726-2

> <ROCS_ShapeQuery>
_7L13

> <ROCS_TanimotoCombo>
0.770 

> <ROCS_ShapeTanimoto>
0.639 

> <ROCS_ColorTanimoto>
0.130 

> <ROCS_RefTversky>
0.780 

> <ROCS_RefColorTversky>
0.298 

> <ROCS_RefTverskyCombo>
1.078 

> <ROCS_FitTversky>
0.780 

> <ROCS_FitColorTversky>
0.188 

> <ROCS_FitTverskyCombo>
0.968 

> <ROCS_ColorScore>
-2.775

> <ROCS_Overlap>
1295.005

> <ROCS_Rank>
366                 

$$$$
ligprep_h3d.sdf:5447_1218
  -OEChem-08212117123D

 62 67  0     0  0  0  0  0  0999 V2000
  -21.1713   -6.4458  -33.3894 C   0  0  0  0  0  0  0  0  0  0  0  0
  -20.3027   -4.2057  -33.1355 C   0  0  0  0  0  0  0  0  0  0  0  0
  -20.2488   -6.6882  -34.4072 C   0  0  0  0  0  0  0  0  0  0  0  0
  -19.3802   -4.4481  -34.1533 C   0  0  0  0  0  0  0  0  0  0  0  0
  -15.1167   -5.2871  -25.8384 C   0  0  0  0  0  0  0  0  0  0  0  0
  -23.7503   -4.1134  -27.7464 C   0  0  0  0  0  0  0  0  0  0  0  0
  -21.0367   -4.3504  -28.4617 C   0  0  0  0  0  0  0  0  0  0  0  0
  -15.1774   -6.5894  -25.3207 C   0  0  0  0  0  0  0  0  0  0  0  0
  -22.7756   -4.3521  -26.7849 C   0  0  0  0  0  0  0  0  0  0  0  0
  -21.1983   -5.2045  -32.7536 C   0  0  0  0  0  0  0  0  0  0  0  0
  -21.4245   -4.4731  -27.1322 C   0  0  0  0  0  0  0  0  0  0  0  0
  -23.3606   -3.9997  -29.0801 C   0  0  0  0  0  0  0  0  0  0  0  0
  -22.0117   -4.1163  -29.4355 C   0  0  0  0  0  0  0  0  0  0  0  0
  -19.3533   -5.6893  -34.7891 C   0  0  0  0  0  0  0  0  0  0  0  0
  -16.4308   -4.9128  -25.9728 C   0  0  0  0  0  0  0  0  0  0  0  0
  -17.0984   -3.7454  -26.4292 C   0  0  0  0  0  0  0  0  0  0  0  0
  -18.4437   -3.7061  -26.4308 C   0  0  0  0  0  0  0  0  0  0  0  0
  -18.6092   -5.9341  -25.5445 C   0  0  0  0  0  0  0  0  0  0  0  0
  -19.2588   -4.8338  -25.9747 C   0  0  0  0  0  0  0  0  0  0  0  0
  -23.2858   -3.0876  -24.6799 C   0  0  0  0  0  0  0  0  0  0  0  0
  -24.0100   -5.5062  -24.8944 C   0  0  0  0  0  0  0  0  0  0  0  0
  -21.5093   -4.9345  -24.8723 C   0  0  0  0  0  0  0  0  0  0  0  0
  -23.5649   -3.1505  -23.1829 C   0  0  0  0  0  0  0  0  0  0  0  0
  -24.2446   -5.5524  -23.3911 C   0  0  0  0  0  0  0  0  0  0  0  0
  -22.9422   -4.4661  -25.2883 C   0  0  0  0  0  0  0  0  0  0  0  0
  -24.6123   -2.4239  -30.3474 C   0  0  0  0  0  0  0  0  0  0  0  0
  -22.1898   -4.9434  -31.6581 C   0  0  0  0  0  0  0  0  0  0  0  0
  -16.4253   -7.0219  -25.1351 N   0  0  0  0  0  0  0  0  0  0  0  0
  -17.2108   -5.9861  -25.5384 N   0  0  0  0  0  0  0  0  0  0  0  0
  -20.6083   -4.7107  -26.0094 N   0  0  0  0  0  0  0  0  0  0  0  0
  -24.6049   -4.1852  -22.9131 N   0  3  0  0  0  0  0  0  0  0  0  0
  -24.3080   -3.7816  -30.0355 O   0  0  0  0  0  0  0  0  0  0  0  0
  -21.6334   -4.0045  -30.7410 O   0  0  0  0  0  0  0  0  0  0  0  0
  -18.4656   -5.9229  -35.7647 F   0  0  0  0  0  0  0  0  0  0  0  0
  -21.8656   -7.2300  -33.0992 H   0  0  0  0  0  0  0  0  0  0  0  0
  -20.3161   -3.2356  -32.6456 H   0  0  0  0  0  0  0  0  0  0  0  0
  -20.2273   -7.6546  -34.9017 H   0  0  0  0  0  0  0  0  0  0  0  0
  -18.6831   -3.6705  -34.4513 H   0  0  0  0  0  0  0  0  0  0  0  0
  -14.2415   -4.7016  -26.0804 H   0  0  0  0  0  0  0  0  0  0  0  0
  -24.7962   -4.0274  -27.4696 H   0  0  0  0  0  0  0  0  0  0  0  0
  -19.9942   -4.4271  -28.7549 H   0  0  0  0  0  0  0  0  0  0  0  0
  -14.3586   -7.2478  -25.0680 H   0  0  0  0  0  0  0  0  0  0  0  0
  -16.5199   -2.8943  -26.7722 H   0  0  0  0  0  0  0  0  0  0  0  0
  -18.9544   -2.8128  -26.7784 H   0  0  0  0  0  0  0  0  0  0  0  0
  -19.1271   -6.8178  -25.1881 H   0  0  0  0  0  0  0  0  0  0  0  0
  -24.1712   -2.6656  -25.1797 H   0  0  0  0  0  0  0  0  0  0  0  0
  -22.4737   -2.3698  -24.8686 H   0  0  0  0  0  0  0  0  0  0  0  0
  -23.7267   -6.5045  -25.2447 H   0  0  0  0  0  0  0  0  0  0  0  0
  -24.9608   -5.2681  -25.3860 H   0  0  0  0  0  0  0  0  0  0  0  0
  -21.1387   -4.3489  -24.0204 H   0  0  0  0  0  0  0  0  0  0  0  0
  -21.4896   -5.9878  -24.5705 H   0  0  0  0  0  0  0  0  0  0  0  0
  -22.6755   -3.4177  -22.5999 H   0  0  0  0  0  0  0  0  0  0  0  0
  -23.9596   -2.1980  -22.8115 H   0  0  0  0  0  0  0  0  0  0  0  0
  -25.0819   -6.2072  -23.1394 H   0  0  0  0  0  0  0  0  0  0  0  0
  -23.3611   -5.8697  -22.8330 H   0  0  0  0  0  0  0  0  0  0  0  0
  -25.3816   -2.3909  -31.1226 H   0  0  0  0  0  0  0  0  0  0  0  0
  -23.7081   -1.9174  -30.6945 H   0  0  0  0  0  0  0  0  0  0  0  0
  -24.9832   -1.9270  -29.4478 H   0  0  0  0  0  0  0  0  0  0  0  0
  -23.1230   -4.5372  -32.0629 H   0  0  0  0  0  0  0  0  0  0  0  0
  -22.4296   -5.8689  -31.1235 H   0  0  0  0  0  0  0  0  0  0  0  0
  -24.7883   -4.2216  -21.9012 H   0  0  0  0  0  0  0  0  0  0  0  0
  -25.4947   -3.8968  -23.3441 H   0  0  0  0  0  0  0  0  0  0  0  0
  1  3  1  0  0  0  0
  1 10  2  0  0  0  0
  2  4  2  0  0  0  0
  2 10  1  0  0  0  0
  3 14  2  0  0  0  0
  4 14  1  0  0  0  0
  5  8  1  0  0  0  0
  5 15  2  0  0  0  0
  6  9  1  0  0  0  0
  6 12  2  0  0  0  0
  7 11  1  0  0  0  0
  7 13  2  0  0  0  0
  8 28  2  0  0  0  0
  9 11  2  0  0  0  0
  9 25  1  0  0  0  0
 10 27  1  0  0  0  0
 11 30  1  0  0  0  0
 12 13  1  0  0  0  0
 12 32  1  0  0  0  0
 13 33  1  0  0  0  0
 14 34  1  0  0  0  0
 15 16  1  0  0  0  0
 15 29  1  0  0  0  0
 16 17  2  0  0  0  0
 17 19  1  0  0  0  0
 18 19  2  0  0  0  0
 18 29  1  0  0  0  0
 19 30  1  0  0  0  0
 20 23  1  0  0  0  0
 20 25  1  0  0  0  0
 21 24  1  0  0  0  0
 21 25  1  0  0  0  0
 22 25  1  0  0  0  0
 22 30  1  0  0  0  0
 23 31  1  0  0  0  0
 24 31  1  0  0  0  0
 26 32  1  0  0  0  0
 27 33  1  0  0  0  0
 28 29  1  0  0  0  0
  1 35  1  0  0  0  0
  2 36  1  0  0  0  0
  3 37  1  0  0  0  0
  4 38  1  0  0  0  0
  5 39  1  0  0  0  0
  6 40  1  0  0  0  0
  7 41  1  0  0  0  0
  8 42  1  0  0  0  0
 16 43  1  0  0  0  0
 17 44  1  0  0  0  0
 18 45  1  0  0  0  0
 20 46  1  0  0  0  0
 20 47  1  0  0  0  0
 21 48  1  0  0  0  0
 21 49  1  0  0  0  0
 22 50  1  0  0  0  0
 22 51  1  0  0  0  0
 23 52  1  0  0  0  0
 23 53  1  0  0  0  0
 24 54  1  0  0  0  0
 24 55  1  0  0  0  0
 26 56  1  0  0  0  0
 26 57  1  0  0  0  0
 26 58  1  0  0  0  0
 27 59  1  0  0  0  0
 27 60  1  0  0  0  0
 31 61  1  0  0  0  0
 31 62  1  0  0  0  0
M  CHG  1  31   1
M  END
> <SMILES>
COc1cc2c(cc1OCc1ccc(cc1)F)N(CC12CCNCC1)c1ccc2ccnn2c1

> <FORMATTED_ID>
H3D-016160

> <MOLFORMULA>
C27H27FN4O2

> <Exact Mass>
458.21

> <XLogP>
6

> <TPSA_NOPS>
51

> <s_m_source_file>
ligprep_h3d.sdf

> <i_m_source_file_index>
5447

> <i_lp_mmshare_version>
55123

> <i_f3d_flags>
0

> <s_epik_input>
W2NIXTFbY0hdYyhGKVtjSF1bY0hdYzFbQ0gyXU9jKGMoW2NIXTIpT1tDSDNdKVtjSF1jKGMyQzM0W0NIMl1bQ0gyXVtOSF1bQ0gyXVtDSDJdNClOKFtDSDJdMyljKFtjSF1bY0hdNSlbY0hdbihjNTYpbltjSF1bY0hdNg==

> <s_epik_cmdline>
J2VwaWtfcHl0aG9uJywgJy1waHQnLCAnMC41JywgJy1waCcsICc3LjUnLCAnLXRuJywgJzgnLCAnLW1hJywgJzUwMCcsICctaW1hZScsICc8aW5maWxlLm1hZT4nLCAnLW9tYWUnLCAnPG91dGZpbGUubWFlPic=

> <r_lp_tautomer_probability>
1

> <r_epik_Ionization_Penalty>
0.00220694

> <r_epik_Ionization_Penalty_Charging>
0.00220253

> <r_epik_Ionization_Penalty_Neutral>
4.40887e-06

> <r_epik_State_Penalty>
-0

> <r_epik_Charging_Adjusted_Penalty>
0.00220253

> <i_epik_Tot_Q>
1

> <i_epik_Tot_abs_Q>
1

> <s_lp_Force_Field>
S-OPLS

> <r_lp_Energy>
73.0995

> <b_lp_Chiralities_Consistent>
1

> <s_lp_Variant>
ligprep_h3d.sdf:5447-1

> <ROCS_ShapeQuery>
_7L13

> <ROCS_TanimotoCombo>
0.762 

> <ROCS_ShapeTanimoto>
0.659 

> <ROCS_ColorTanimoto>
0.102 

> <ROCS_RefTversky>
0.780 

> <ROCS_RefColorTversky>
0.204 

> <ROCS_RefTverskyCombo>
0.984 

> <ROCS_FitTversky>
0.810 

> <ROCS_FitColorTversky>
0.170 

> <ROCS_FitTverskyCombo>
0.980 

> <ROCS_ColorScore>
-1.857

> <ROCS_Overlap>
1292.142

> <ROCS_Rank>
367                 

$$$$
ligprep_h3d.sdf:4679_1742
  -OEChem-08212117123D

 61 65  0     1  0  0  0  0  0999 V2000
  -19.1270   -7.2862  -35.9524 C   0  0  0  0  0  0  0  0  0  0  0  0
  -15.1426   -5.3932  -25.0948 C   0  0  0  0  0  0  0  0  0  0  0  0
  -24.9723   -5.0412  -22.5638 C   0  0  0  0  0  0  0  0  0  0  0  0
  -15.8611   -6.4593  -25.6359 C   0  0  0  0  0  0  0  0  0  0  0  0
  -15.6882   -4.1095  -25.1017 C   0  0  0  0  0  0  0  0  0  0  0  0
  -23.6637   -4.7934  -22.9779 C   0  0  0  0  0  0  0  0  0  0  0  0
  -26.0362   -4.8032  -23.4341 C   0  0  0  0  0  0  0  0  0  0  0  0
  -19.7172   -5.0369  -35.1955 C   0  0  0  0  0  0  0  0  0  0  0  0
  -20.0444   -6.9186  -33.7158 C   0  0  0  0  0  0  0  0  0  0  0  0
  -20.2125   -4.1788  -34.2137 C   0  0  0  0  0  0  0  0  0  0  0  0
  -20.5396   -6.0604  -32.7340 C   0  0  0  0  0  0  0  0  0  0  0  0
  -17.1251   -6.2417  -26.1840 C   0  0  0  0  0  0  0  0  0  0  0  0
  -16.9522   -3.8918  -25.6498 C   0  0  0  0  0  0  0  0  0  0  0  0
  -23.4187   -4.3074  -24.2623 C   0  0  0  0  0  0  0  0  0  0  0  0
  -25.7912   -4.3172  -24.7185 C   0  0  0  0  0  0  0  0  0  0  0  0
  -19.6332   -6.4069  -34.9466 C   0  0  0  0  0  0  0  0  0  0  0  0
  -20.6237   -4.6905  -32.9830 C   0  0  0  0  0  0  0  0  0  0  0  0
  -17.6707   -4.9579  -26.1910 C   0  0  0  0  0  0  0  0  0  0  0  0
  -24.4825   -4.0693  -25.1325 C   0  0  0  0  0  0  0  0  0  0  0  0
  -22.1653   -4.4452  -31.0361 C   0  0  0  0  0  0  0  0  0  0  0  0
  -22.7469   -5.0814  -28.7103 C   0  0  0  0  0  0  0  0  0  0  0  0
  -19.8744   -5.6266  -27.3484 C   0  0  0  0  0  0  0  0  0  0  0  0
  -19.8676   -3.6689  -26.5849 C   0  0  0  0  0  0  0  0  0  0  0  0
  -20.6665   -3.8785  -29.0721 C   0  0  0  0  0  0  0  0  0  0  0  0
  -22.2539   -4.5974  -27.3505 C   0  0  1  0  0  0  0  0  0  0  0  0
  -20.7628   -4.3817  -27.6280 C   0  0  0  0  0  0  0  0  0  0  0  0
  -21.1546   -3.7676  -31.9268 C   0  0  0  0  0  0  0  0  0  0  0  0
  -22.9426   -3.2979  -26.9378 C   0  0  0  0  0  0  0  0  0  0  0  0
  -18.7158   -8.0004  -36.7694 N   0  0  0  0  0  0  0  0  0  0  0  0
  -18.9412   -4.7388  -26.7416 N   0  0  0  0  0  0  0  0  0  0  0  0
  -21.8615   -4.4549  -29.6840 N   0  0  0  0  0  0  0  0  0  0  0  0
  -24.2376   -3.5828  -26.4188 N   0  0  0  0  0  0  0  0  0  0  0  0
  -23.1803   -4.9505  -31.5186 O   0  0  0  0  0  0  0  0  0  0  0  0
  -14.1581   -5.5628  -24.6682 H   0  0  0  0  0  0  0  0  0  0  0  0
  -25.1630   -5.4194  -21.5636 H   0  0  0  0  0  0  0  0  0  0  0  0
  -15.4362   -7.4585  -25.6306 H   0  0  0  0  0  0  0  0  0  0  0  0
  -15.1285   -3.2794  -24.6803 H   0  0  0  0  0  0  0  0  0  0  0  0
  -22.8357   -4.9787  -22.3003 H   0  0  0  0  0  0  0  0  0  0  0  0
  -27.0553   -4.9962  -23.1115 H   0  0  0  0  0  0  0  0  0  0  0  0
  -19.4024   -4.6232  -36.1506 H   0  0  0  0  0  0  0  0  0  0  0  0
  -19.9837   -7.9839  -33.5057 H   0  0  0  0  0  0  0  0  0  0  0  0
  -20.2752   -3.1130  -34.4168 H   0  0  0  0  0  0  0  0  0  0  0  0
  -20.8559   -6.4677  -31.7773 H   0  0  0  0  0  0  0  0  0  0  0  0
  -17.6768   -7.0791  -26.6033 H   0  0  0  0  0  0  0  0  0  0  0  0
  -17.3674   -2.8871  -25.6494 H   0  0  0  0  0  0  0  0  0  0  0  0
  -22.3953   -4.1175  -24.5752 H   0  0  0  0  0  0  0  0  0  0  0  0
  -26.6281   -4.1356  -25.3881 H   0  0  0  0  0  0  0  0  0  0  0  0
  -22.6128   -6.1648  -28.8121 H   0  0  0  0  0  0  0  0  0  0  0  0
  -23.7946   -4.8439  -28.9203 H   0  0  0  0  0  0  0  0  0  0  0  0
  -20.2814   -6.3511  -26.6343 H   0  0  0  0  0  0  0  0  0  0  0  0
  -19.4674   -6.1514  -28.2169 H   0  0  0  0  0  0  0  0  0  0  0  0
  -19.4579   -2.6988  -26.8771 H   0  0  0  0  0  0  0  0  0  0  0  0
  -20.2736   -3.6188  -25.5690 H   0  0  0  0  0  0  0  0  0  0  0  0
  -20.7523   -2.7883  -29.1305 H   0  0  0  0  0  0  0  0  0  0  0  0
  -19.7634   -4.2001  -29.5986 H   0  0  0  0  0  0  0  0  0  0  0  0
  -22.4297   -5.3527  -26.5765 H   0  0  0  0  0  0  0  0  0  0  0  0
  -20.3376   -3.3964  -31.3057 H   0  0  0  0  0  0  0  0  0  0  0  0
  -21.6251   -2.8926  -32.3779 H   0  0  0  0  0  0  0  0  0  0  0  0
  -22.3189   -2.8298  -26.1783 H   0  0  0  0  0  0  0  0  0  0  0  0
  -23.0140   -2.6745  -27.8274 H   0  0  0  0  0  0  0  0  0  0  0  0
  -25.0566   -3.4261  -27.0121 H   0  0  0  0  0  0  0  0  0  0  0  0
  1 16  1  0  0  0  0
  1 29  3  0  0  0  0
  2  4  2  0  0  0  0
  2  5  1  0  0  0  0
  3  6  2  0  0  0  0
  3  7  1  0  0  0  0
  4 12  1  0  0  0  0
  5 13  2  0  0  0  0
  6 14  1  0  0  0  0
  7 15  2  0  0  0  0
  8 10  1  0  0  0  0
  8 16  2  0  0  0  0
  9 11  2  0  0  0  0
  9 16  1  0  0  0  0
 10 17  2  0  0  0  0
 11 17  1  0  0  0  0
 12 18  2  0  0  0  0
 13 18  1  0  0  0  0
 14 19  2  0  0  0  0
 15 19  1  0  0  0  0
 17 27  1  0  0  0  0
 18 30  1  0  0  0  0
 19 32  1  0  0  0  0
 20 27  1  0  0  0  0
 20 31  1  0  0  0  0
 20 33  2  0  0  0  0
 21 25  1  0  0  0  0
 21 31  1  0  0  0  0
 22 26  1  0  0  0  0
 22 30  1  0  0  0  0
 23 26  1  0  0  0  0
 23 30  1  0  0  0  0
 24 26  1  0  0  0  0
 24 31  1  0  0  0  0
 25 26  1  0  0  0  0
 25 28  1  0  0  0  0
 28 32  1  0  0  0  0
  2 34  1  0  0  0  0
  3 35  1  0  0  0  0
  4 36  1  0  0  0  0
  5 37  1  0  0  0  0
  6 38  1  0  0  0  0
  7 39  1  0  0  0  0
  8 40  1  0  0  0  0
  9 41  1  0  0  0  0
 10 42  1  0  0  0  0
 11 43  1  0  0  0  0
 12 44  1  0  0  0  0
 13 45  1  0  0  0  0
 14 46  1  0  0  0  0
 15 47  1  0  0  0  0
 21 48  1  0  0  0  0
 21 49  1  0  0  0  0
 22 50  1  0  0  0  0
 22 51  1  0  0  0  0
 23 52  1  0  0  0  0
 23 53  1  0  0  0  0
 24 54  1  0  0  0  0
 24 55  1  0  0  0  0
 25 56  1  0  0  0  0
 27 57  1  0  0  0  0
 27 58  1  0  0  0  0
 28 59  1  0  0  0  0
 28 60  1  0  0  0  0
 32 61  1  0  0  0  0
M  END
> <SMILES>
O=C(Cc1ccc(cc1)C#N)N1CC(CNc2ccccc2)C2(C1)CN(C2)c1ccccc1

> <FORMATTED_ID>
H3D-006010

> <MOLFORMULA>
C28H28N4O

> <Exact Mass>
436.23

> <XLogP>
3.91

> <TPSA_NOPS>
59.4

> <s_m_source_file>
ligprep_h3d.sdf

> <i_m_source_file_index>
4679

> <i_lp_mmshare_version>
55123

> <i_f3d_flags>
0

> <s_epik_input>
W2NIXTFbY0hdYyhDI04pW2NIXVtjSF1jMVtDSDJdQyg9TylOKFtDSDJdMilbQ0gyXVtDQEhdKFtDSDJdW05IXWMzW2NIXVtjSF1bY0hdW2NIXVtjSF0zKUMyNFtDSDJdTihbQ0gyXTQpYzVbY0hdW2NIXVtjSF1bY0hdW2NIXTU=

> <s_epik_cmdline>
J2VwaWtfcHl0aG9uJywgJy1waHQnLCAnMC41JywgJy1waCcsICc3LjUnLCAnLXRuJywgJzgnLCAnLW1hJywgJzUwMCcsICctaW1hZScsICc8aW5maWxlLm1hZT4nLCAnLW9tYWUnLCAnPG91dGZpbGUubWFlPic=

> <r_lp_tautomer_probability>
1

> <r_epik_Ionization_Penalty>
0.00291202

> <r_epik_Ionization_Penalty_Charging>
0

> <r_epik_Ionization_Penalty_Neutral>
0.00291202

> <r_epik_State_Penalty>
-0

> <r_epik_Charging_Adjusted_Penalty>
0

> <i_epik_Tot_Q>
0

> <i_epik_Tot_abs_Q>
0

> <s_lp_Force_Field>
S-OPLS

> <r_lp_Energy>
36.1426

> <b_lp_Chiralities_Consistent>
1

> <s_lp_Variant>
ligprep_h3d.sdf:4679-1

> <ROCS_ShapeQuery>
_7L13

> <ROCS_TanimotoCombo>
0.758 

> <ROCS_ShapeTanimoto>
0.687 

> <ROCS_ColorTanimoto>
0.071 

> <ROCS_RefTversky>
0.780 

> <ROCS_RefColorTversky>
0.126 

> <ROCS_RefTverskyCombo>
0.905 

> <ROCS_FitTversky>
0.852 

> <ROCS_FitColorTversky>
0.139 

> <ROCS_FitTverskyCombo>
0.992 

> <ROCS_ColorScore>
-1.124

> <ROCS_Overlap>
1288.696

> <ROCS_Rank>
368                 

$$$$
ligprep_h3d.sdf:2919_658
  -OEChem-08212117123D

 62 66  0     0  0  0  0  0  0999 V2000
  -16.8111   -4.0282  -25.5417 C   0  0  0  0  0  0  0  0  0  0  0  0
  -18.4647   -5.7751  -25.7673 C   0  0  0  0  0  0  0  0  0  0  0  0
  -15.9684   -4.9128  -24.8687 C   0  0  0  0  0  0  0  0  0  0  0  0
  -17.6219   -6.6598  -25.0944 C   0  0  0  0  0  0  0  0  0  0  0  0
  -19.6224   -5.1394  -36.0343 C   0  0  0  0  0  0  0  0  0  0  0  0
  -18.5695   -5.4420  -36.8976 C   0  0  0  0  0  0  0  0  0  0  0  0
  -23.5173   -4.7800  -25.5577 C   0  0  0  0  0  0  0  0  0  0  0  0
  -21.1821   -3.5728  -24.4722 C   0  0  0  0  0  0  0  0  0  0  0  0
  -18.9152   -7.7987  -36.4932 C   0  0  0  0  0  0  0  0  0  0  0  0
  -18.0593   -4.4594  -25.9910 C   0  0  0  0  0  0  0  0  0  0  0  0
  -16.3738   -6.2285  -24.6450 C   0  0  0  0  0  0  0  0  0  0  0  0
  -20.3217   -6.1664  -35.4003 C   0  0  0  0  0  0  0  0  0  0  0  0
  -22.3663   -4.6207  -26.3478 C   0  0  0  0  0  0  0  0  0  0  0  0
  -21.2376   -4.0266  -25.7904 C   0  0  0  0  0  0  0  0  0  0  0  0
  -19.9681   -7.4961  -35.6298 C   0  0  0  0  0  0  0  0  0  0  0  0
  -18.2159   -6.7716  -37.1271 C   0  0  0  0  0  0  0  0  0  0  0  0
  -23.4846   -4.3317  -24.2312 C   0  0  0  0  0  0  0  0  0  0  0  0
  -22.3367   -3.7391  -23.7001 C   0  0  0  0  0  0  0  0  0  0  0  0
  -20.9012   -4.5984  -27.9010 C   0  0  0  0  0  0  0  0  0  0  0  0
  -19.5836   -5.7877  -31.1970 C   0  0  0  0  0  0  0  0  0  0  0  0
  -21.6161   -4.3308  -31.0124 C   0  0  0  0  0  0  0  0  0  0  0  0
  -20.1377   -6.3221  -32.5188 C   0  0  0  0  0  0  0  0  0  0  0  0
  -22.1025   -4.9124  -32.3409 C   0  0  0  0  0  0  0  0  0  0  0  0
  -20.7079   -5.3145  -30.2751 C   0  0  0  0  0  0  0  0  0  0  0  0
  -18.9689   -3.5058  -26.7175 C   0  0  0  0  0  0  0  0  0  0  0  0
  -21.4523   -5.8220  -34.4744 C   0  0  0  0  0  0  0  0  0  0  0  0
  -15.4715   -7.1743  -23.9268 C   0  0  0  0  0  0  0  0  0  0  0  0
  -22.1385   -4.9694  -27.6593 N   0  0  0  0  0  0  0  0  0  0  0  0
  -20.3163   -4.0253  -26.8061 N   0  0  0  0  0  0  0  0  0  0  0  0
  -20.9721   -5.3152  -33.1890 N   0  0  0  0  0  0  0  0  0  0  0  0
  -20.1782   -4.7220  -29.0723 N   0  0  0  0  0  0  0  0  0  0  0  0
  -20.6397   -8.5110  -35.0174 O   0  0  0  0  0  0  0  0  0  0  0  0
  -17.2047   -7.0625  -37.9559 F   0  0  0  0  0  0  0  0  0  0  0  0
  -24.5716   -4.4752  -23.4604 F   0  0  0  0  0  0  0  0  0  0  0  0
  -22.3402   -3.3220  -22.4260 F   0  0  0  0  0  0  0  0  0  0  0  0
  -14.2838   -6.6163  -23.5472 F   0  0  0  0  0  0  0  0  0  0  0  0
  -16.0111   -7.6787  -22.7779 F   0  0  0  0  0  0  0  0  0  0  0  0
  -15.1401   -8.2608  -24.6834 F   0  0  0  0  0  0  0  0  0  0  0  0
  -16.4871   -3.0047  -25.7112 H   0  0  0  0  0  0  0  0  0  0  0  0
  -19.4349   -6.1198  -26.1153 H   0  0  0  0  0  0  0  0  0  0  0  0
  -14.9971   -4.5684  -24.5238 H   0  0  0  0  0  0  0  0  0  0  0  0
  -17.9454   -7.6833  -24.9242 H   0  0  0  0  0  0  0  0  0  0  0  0
  -19.8909   -4.1004  -35.8616 H   0  0  0  0  0  0  0  0  0  0  0  0
  -18.0239   -4.6430  -37.3909 H   0  0  0  0  0  0  0  0  0  0  0  0
  -24.4139   -5.2394  -25.9610 H   0  0  0  0  0  0  0  0  0  0  0  0
  -20.2920   -3.1126  -24.0585 H   0  0  0  0  0  0  0  0  0  0  0  0
  -18.6339   -8.8322  -36.6757 H   0  0  0  0  0  0  0  0  0  0  0  0
  -19.0250   -6.5847  -30.6951 H   0  0  0  0  0  0  0  0  0  0  0  0
  -18.8739   -4.9782  -31.3878 H   0  0  0  0  0  0  0  0  0  0  0  0
  -21.0995   -3.3826  -31.1852 H   0  0  0  0  0  0  0  0  0  0  0  0
  -22.4828   -4.1068  -30.3815 H   0  0  0  0  0  0  0  0  0  0  0  0
  -19.3139   -6.6447  -33.1689 H   0  0  0  0  0  0  0  0  0  0  0  0
  -20.7407   -7.2117  -32.2984 H   0  0  0  0  0  0  0  0  0  0  0  0
  -22.7262   -5.7874  -32.1195 H   0  0  0  0  0  0  0  0  0  0  0  0
  -22.7416   -4.1847  -32.8584 H   0  0  0  0  0  0  0  0  0  0  0  0
  -21.3122   -6.1945  -29.9733 H   0  0  0  0  0  0  0  0  0  0  0  0
  -19.0087   -2.5334  -26.2117 H   0  0  0  0  0  0  0  0  0  0  0  0
  -18.6086   -3.3124  -27.7352 H   0  0  0  0  0  0  0  0  0  0  0  0
  -22.0964   -5.0559  -34.9198 H   0  0  0  0  0  0  0  0  0  0  0  0
  -22.0785   -6.6982  -34.2760 H   0  0  0  0  0  0  0  0  0  0  0  0
  -19.2264   -4.3825  -29.0945 H   0  0  0  0  0  0  0  0  0  0  0  0
  -20.2686   -9.3668  -35.2835 H   0  0  0  0  0  0  0  0  0  0  0  0
  1  3  1  0  0  0  0
  1 10  2  0  0  0  0
  2  4  2  0  0  0  0
  2 10  1  0  0  0  0
  3 11  2  0  0  0  0
  4 11  1  0  0  0  0
  5  6  1  0  0  0  0
  5 12  2  0  0  0  0
  6 16  2  0  0  0  0
  7 13  2  0  0  0  0
  7 17  1  0  0  0  0
  8 14  2  0  0  0  0
  8 18  1  0  0  0  0
  9 15  2  0  0  0  0
  9 16  1  0  0  0  0
 10 25  1  0  0  0  0
 11 27  1  0  0  0  0
 12 15  1  0  0  0  0
 12 26  1  0  0  0  0
 13 14  1  0  0  0  0
 13 28  1  0  0  0  0
 14 29  1  0  0  0  0
 15 32  1  0  0  0  0
 16 33  1  0  0  0  0
 17 18  2  0  0  0  0
 17 34  1  0  0  0  0
 18 35  1  0  0  0  0
 19 28  2  0  0  0  0
 19 29  1  0  0  0  0
 19 31  1  0  0  0  0
 20 22  1  0  0  0  0
 20 24  1  0  0  0  0
 21 23  1  0  0  0  0
 21 24  1  0  0  0  0
 22 30  1  0  0  0  0
 23 30  1  0  0  0  0
 24 31  1  0  0  0  0
 25 29  1  0  0  0  0
 26 30  1  0  0  0  0
 27 36  1  0  0  0  0
 27 37  1  0  0  0  0
 27 38  1  0  0  0  0
  1 39  1  0  0  0  0
  2 40  1  0  0  0  0
  3 41  1  0  0  0  0
  4 42  1  0  0  0  0
  5 43  1  0  0  0  0
  6 44  1  0  0  0  0
  7 45  1  0  0  0  0
  8 46  1  0  0  0  0
  9 47  1  0  0  0  0
 20 48  1  0  0  0  0
 20 49  1  0  0  0  0
 21 50  1  0  0  0  0
 21 51  1  0  0  0  0
 22 52  1  0  0  0  0
 22 53  1  0  0  0  0
 23 54  1  0  0  0  0
 23 55  1  0  0  0  0
 24 56  1  0  0  0  0
 25 57  1  0  0  0  0
 25 58  1  0  0  0  0
 26 59  1  0  0  0  0
 26 60  1  0  0  0  0
 31 61  1  0  0  0  0
 32 62  1  0  0  0  0
M  END
> <SMILES>
Oc1cc(ccc1CN1CCC(CC1)Nc1nc2cc(c(cc2n1Cc1ccc(cc1)C(F)(F)F)F)F)F

> <FORMATTED_ID>
H3D-012701

> <MOLFORMULA>
C27H24F6N4O

> <Exact Mass>
534.19

> <XLogP>
7.62

> <TPSA_NOPS>
53.3

> <s_m_source_file>
ligprep_h3d.sdf

> <i_m_source_file_index>
2919

> <i_lp_mmshare_version>
55123

> <i_f3d_flags>
0

> <s_epik_input>
W09IXWMxW2NIXWMoRilbY0hdW2NIXWMxW0NIMl1OMltDSDJdW0NIMl1bQ0hdKFtDSDJdW0NIMl0yKVtOSF1jKG4zKW4oYyhjMzQpW2NIXWMoRiljKEYpW2NIXTQpW0NIMl1jNVtjSF1bY0hdYyhDKEYpKEYpRilbY0hdW2NIXTU=

> <s_epik_cmdline>
J2VwaWtfcHl0aG9uJywgJy1waHQnLCAnMC41JywgJy1waCcsICc3LjUnLCAnLXRuJywgJzgnLCAnLW1hJywgJzUwMCcsICctaW1hZScsICc8aW5maWxlLm1hZT4nLCAnLW9tYWUnLCAnPG91dGZpbGUubWFlPic=

> <r_lp_tautomer_probability>
1

> <r_epik_Ionization_Penalty>
0.390839

> <r_epik_Ionization_Penalty_Charging>
0

> <r_epik_Ionization_Penalty_Neutral>
0.390839

> <r_epik_State_Penalty>
-0

> <r_epik_Charging_Adjusted_Penalty>
0

> <i_epik_Tot_Q>
0

> <i_epik_Tot_abs_Q>
0

> <s_lp_Force_Field>
S-OPLS

> <r_lp_Energy>
32.6684

> <b_lp_Chiralities_Consistent>
1

> <s_lp_Variant>
ligprep_h3d.sdf:2919-1

> <ROCS_ShapeQuery>
_7L13

> <ROCS_TanimotoCombo>
0.668 

> <ROCS_ShapeTanimoto>
0.611 

> <ROCS_ColorTanimoto>
0.056 

> <ROCS_RefTversky>
0.780 

> <ROCS_RefColorTversky>
0.112 

> <ROCS_RefTverskyCombo>
0.892 

> <ROCS_FitTversky>
0.739 

> <ROCS_FitColorTversky>
0.102 

> <ROCS_FitTverskyCombo>
0.841 

> <ROCS_ColorScore>
-1.016

> <ROCS_Overlap>
1298.551

> <ROCS_Rank>
369                 

$$$$
ligprep_h3d.sdf:894_1535
  -OEChem-08212117123D

 71 75  0     1  0  0  0  0  0999 V2000
  -16.6722   -5.5600  -26.5506 C   0  0  0  0  0  0  0  0  0  0  0  0
  -23.0070   -4.4284  -28.8671 C   0  0  0  0  0  0  0  0  0  0  0  0
  -20.6657   -4.3848  -25.4339 C   0  0  0  0  0  0  0  0  0  0  0  0
  -16.6626   -4.1580  -26.6773 C   0  0  0  0  0  0  0  0  0  0  0  0
  -20.8409   -4.5809  -27.8372 C   0  0  0  0  0  0  0  0  0  0  0  0
  -21.0574   -4.7730  -30.2471 C   0  0  0  0  0  0  0  0  0  0  0  0
  -22.4316   -4.6068  -30.1276 C   0  0  0  0  0  0  0  0  0  0  0  0
  -20.2619   -4.7603  -29.1050 C   0  0  0  0  0  0  0  0  0  0  0  0
  -22.2355   -4.4117  -27.7083 C   0  0  0  0  0  0  0  0  0  0  0  0
  -20.0638   -4.5640  -26.6711 C   0  0  0  0  0  0  0  0  0  0  0  0
  -22.0366   -4.2275  -25.4080 C   0  0  0  0  0  0  0  0  0  0  0  0
  -18.0043   -5.8940  -26.5323 C   0  0  0  0  0  0  0  0  0  0  0  0
  -20.0128   -3.8476  -32.3990 C   0  0  0  0  0  0  0  0  0  0  0  0
  -20.3271   -6.2137  -32.0556 C   0  0  0  0  0  0  0  0  0  0  0  0
  -19.4725   -4.0626  -33.6030 C   0  0  0  0  0  0  0  0  0  0  0  0
  -20.4629   -4.9605  -31.5856 C   0  0  0  0  0  0  0  0  0  0  0  0
  -19.7257   -6.4707  -33.4012 C   0  0  0  0  0  0  0  0  0  0  0  0
  -22.7443   -4.0314  -24.1166 C   0  0  0  0  0  0  0  0  0  0  0  0
  -27.0842   -4.2579  -22.0206 C   0  0  0  0  0  0  0  0  0  0  0  0
  -26.2604   -4.9653  -23.0828 C   0  0  0  0  0  0  0  0  0  0  0  0
  -26.5949   -2.8162  -22.0927 C   0  0  0  0  0  0  0  0  0  0  0  0
  -24.8705   -4.3725  -22.8827 C   0  0  2  0  0  0  0  0  0  0  0  0
  -25.1241   -2.9055  -22.5110 C   0  0  2  0  0  0  0  0  0  0  0  0
  -23.3322   -4.6123  -31.3218 C   0  0  0  0  0  0  0  0  0  0  0  0
  -18.7852   -4.9458  -29.3133 C   0  0  0  0  0  0  0  0  0  0  0  0
  -18.6623   -7.2105  -26.4193 C   0  0  0  0  0  0  0  0  0  0  0  0
  -21.4598   -7.3178  -37.0692 C   0  0  0  0  0  0  0  0  0  0  0  0
  -18.7222   -5.4712  -35.4366 C   0  0  0  0  0  0  0  0  0  0  0  0
  -19.8044   -5.7653  -36.4593 C   0  0  0  0  0  0  0  0  0  0  0  0
  -17.8911   -3.6371  -26.7355 N   0  0  0  0  0  0  0  0  0  0  0  0
  -22.8223   -4.2376  -26.5091 N   0  0  0  0  0  0  0  0  0  0  0  0
  -18.6852   -4.7176  -26.6451 N   0  0  0  0  0  0  0  0  0  0  0  0
  -19.3220   -5.3379  -34.1144 N   0  0  0  0  0  0  0  0  0  0  0  0
  -24.0486   -4.5090  -24.0542 N   0  0  0  0  0  0  0  0  0  0  0  0
  -19.6232   -7.6330  -33.7909 O   0  0  0  0  0  0  0  0  0  0  0  0
  -22.1679   -3.4549  -23.1980 O   0  0  0  0  0  0  0  0  0  0  0  0
  -24.2924   -2.5283  -21.4215 O   0  0  0  0  0  0  0  0  0  0  0  0
  -20.4398   -6.9951  -36.1341 O   0  0  0  0  0  0  0  0  0  0  0  0
  -15.8296   -6.2326  -26.4827 H   0  0  0  0  0  0  0  0  0  0  0  0
  -24.0858   -4.2993  -28.7885 H   0  0  0  0  0  0  0  0  0  0  0  0
  -20.0863   -4.3677  -24.5152 H   0  0  0  0  0  0  0  0  0  0  0  0
  -15.8115   -3.4943  -26.7297 H   0  0  0  0  0  0  0  0  0  0  0  0
  -20.1217   -2.8386  -32.0140 H   0  0  0  0  0  0  0  0  0  0  0  0
  -20.6446   -7.0861  -31.4903 H   0  0  0  0  0  0  0  0  0  0  0  0
  -19.1310   -3.2415  -34.2236 H   0  0  0  0  0  0  0  0  0  0  0  0
  -28.1597   -4.3407  -22.2018 H   0  0  0  0  0  0  0  0  0  0  0  0
  -26.8698   -4.6792  -21.0313 H   0  0  0  0  0  0  0  0  0  0  0  0
  -26.2719   -6.0524  -22.9583 H   0  0  0  0  0  0  0  0  0  0  0  0
  -26.6538   -4.7276  -24.0791 H   0  0  0  0  0  0  0  0  0  0  0  0
  -27.1611   -2.2895  -22.8706 H   0  0  0  0  0  0  0  0  0  0  0  0
  -26.7479   -2.2894  -21.1458 H   0  0  0  0  0  0  0  0  0  0  0  0
  -24.3496   -4.8942  -22.0755 H   0  0  0  0  0  0  0  0  0  0  0  0
  -24.9314   -2.2159  -23.3384 H   0  0  0  0  0  0  0  0  0  0  0  0
  -23.4444   -3.5960  -31.7147 H   0  0  0  0  0  0  0  0  0  0  0  0
  -22.9310   -5.2535  -32.1151 H   0  0  0  0  0  0  0  0  0  0  0  0
  -24.3244   -5.0016  -31.0653 H   0  0  0  0  0  0  0  0  0  0  0  0
  -18.5360   -6.0092  -29.2731 H   0  0  0  0  0  0  0  0  0  0  0  0
  -18.4775   -4.5432  -30.2825 H   0  0  0  0  0  0  0  0  0  0  0  0
  -18.2163   -4.4162  -28.5438 H   0  0  0  0  0  0  0  0  0  0  0  0
  -18.8485   -7.4724  -25.3649 H   0  0  0  0  0  0  0  0  0  0  0  0
  -19.6310   -7.2355  -26.9470 H   0  0  0  0  0  0  0  0  0  0  0  0
  -18.0531   -8.0168  -26.8625 H   0  0  0  0  0  0  0  0  0  0  0  0
  -21.9252   -8.2660  -36.7892 H   0  0  0  0  0  0  0  0  0  0  0  0
  -21.0272   -7.3936  -38.0700 H   0  0  0  0  0  0  0  0  0  0  0  0
  -22.2141   -6.5274  -37.0594 H   0  0  0  0  0  0  0  0  0  0  0  0
  -17.9829   -6.2776  -35.3980 H   0  0  0  0  0  0  0  0  0  0  0  0
  -18.2154   -4.5319  -35.6776 H   0  0  0  0  0  0  0  0  0  0  0  0
  -19.3615   -5.8668  -37.4549 H   0  0  0  0  0  0  0  0  0  0  0  0
  -20.5606   -4.9739  -36.4840 H   0  0  0  0  0  0  0  0  0  0  0  0
  -24.4756   -4.9202  -24.8826 H   0  0  0  0  0  0  0  0  0  0  0  0
  -24.5288   -1.6151  -21.1913 H   0  0  0  0  0  0  0  0  0  0  0  0
  1  4  1  0  0  0  0
  1 12  2  0  0  0  0
  2  7  1  0  0  0  0
  2  9  2  0  0  0  0
  3 10  2  0  0  0  0
  3 11  1  0  0  0  0
  4 30  2  0  0  0  0
  5  8  2  0  0  0  0
  5  9  1  0  0  0  0
  5 10  1  0  0  0  0
  6  7  2  0  0  0  0
  6  8  1  0  0  0  0
  6 16  1  0  0  0  0
  7 24  1  0  0  0  0
  8 25  1  0  0  0  0
  9 31  1  0  0  0  0
 10 32  1  0  0  0  0
 11 18  1  0  0  0  0
 11 31  2  0  0  0  0
 12 26  1  0  0  0  0
 12 32  1  0  0  0  0
 13 15  2  0  0  0  0
 13 16  1  0  0  0  0
 14 16  2  0  0  0  0
 14 17  1  0  0  0  0
 15 33  1  0  0  0  0
 17 33  1  0  0  0  0
 17 35  2  0  0  0  0
 18 34  1  0  0  0  0
 18 36  2  0  0  0  0
 19 20  1  0  0  0  0
 19 21  1  0  0  0  0
 20 22  1  0  0  0  0
 21 23  1  0  0  0  0
 22 23  1  0  0  0  0
 22 34  1  0  0  0  0
 23 37  1  0  0  0  0
 27 38  1  0  0  0  0
 28 29  1  0  0  0  0
 28 33  1  0  0  0  0
 29 38  1  0  0  0  0
 30 32  1  0  0  0  0
  1 39  1  0  0  0  0
  2 40  1  0  0  0  0
  3 41  1  0  0  0  0
  4 42  1  0  0  0  0
 13 43  1  0  0  0  0
 14 44  1  0  0  0  0
 15 45  1  0  0  0  0
 19 46  1  0  0  0  0
 19 47  1  0  0  0  0
 20 48  1  0  0  0  0
 20 49  1  0  0  0  0
 21 50  1  0  0  0  0
 21 51  1  0  0  0  0
 22 52  1  0  0  0  0
 23 53  1  0  0  0  0
 24 54  1  0  0  0  0
 24 55  1  0  0  0  0
 24 56  1  0  0  0  0
 25 57  1  0  0  0  0
 25 58  1  0  0  0  0
 25 59  1  0  0  0  0
 26 60  1  0  0  0  0
 26 61  1  0  0  0  0
 26 62  1  0  0  0  0
 27 63  1  0  0  0  0
 27 64  1  0  0  0  0
 27 65  1  0  0  0  0
 28 66  1  0  0  0  0
 28 67  1  0  0  0  0
 29 68  1  0  0  0  0
 29 69  1  0  0  0  0
 34 70  1  0  0  0  0
 37 71  1  0  0  0  0
M  END
> <SMILES>
COCCN1C=CC(=CC1=O)c1c(cc2nc(cc(c2c1C)-n1nccc1C)C(=O)N[C@@H]1CCC[C@H]1O)C

> <FORMATTED_ID>
H3D-005799

> <MOLFORMULA>
C29H33N5O4

> <Exact Mass>
515.25

> <XLogP>
3.06

> <TPSA_NOPS>
109.6

> <s_m_source_file>
ligprep_h3d.sdf

> <i_m_source_file_index>
894

> <i_lp_mmshare_version>
55123

> <i_f3d_flags>
0

> <s_epik_input>
W0NIM11PW0NIMl1bQ0gyXW4xW2NIXVtjSF1jKFtjSF1jMT1PKS1jKGMoW2NIXTIpW0NIM10pYyhbQ0gzXSljKGMyMyljKC1uNG5bY0hdW2NIXWM0W0NIM10pW2NIXWMobjMpQyg9TylbTkhdW0NAQEhdNVtDSDJdW0NIMl1bQ0gyXVtDQEhdNVtPSF0=

> <s_epik_cmdline>
J2VwaWtfcHl0aG9uJywgJy1waHQnLCAnMC41JywgJy1waCcsICc3LjUnLCAnLXRuJywgJzgnLCAnLW1hJywgJzUwMCcsICctaW1hZScsICc8aW5maWxlLm1hZT4nLCAnLW9tYWUnLCAnPG91dGZpbGUubWFlPic=

> <r_lp_tautomer_probability>
1

> <r_epik_Ionization_Penalty>
1.50688e-05

> <r_epik_Ionization_Penalty_Charging>
2.32377e-07

> <r_epik_Ionization_Penalty_Neutral>
1.48364e-05

> <r_epik_State_Penalty>
-0

> <r_epik_Charging_Adjusted_Penalty>
2.32377e-07

> <i_epik_Tot_Q>
0

> <i_epik_Tot_abs_Q>
0

> <s_lp_Force_Field>
S-OPLS

> <r_lp_Energy>
80.0351

> <b_lp_Chiralities_Consistent>
1

> <s_lp_Variant>
ligprep_h3d.sdf:894-1

> <ROCS_ShapeQuery>
_7L13

> <ROCS_TanimotoCombo>
0.714 

> <ROCS_ShapeTanimoto>
0.612 

> <ROCS_ColorTanimoto>
0.102 

> <ROCS_RefTversky>
0.780 

> <ROCS_RefColorTversky>
0.221 

> <ROCS_RefTverskyCombo>
1.001 

> <ROCS_FitTversky>
0.740 

> <ROCS_FitColorTversky>
0.159 

> <ROCS_FitTverskyCombo>
0.899 

> <ROCS_ColorScore>
-2.038

> <ROCS_Overlap>
1298.339

> <ROCS_Rank>
370                 

$$$$
ligprep_h3d.sdf:713_452
  -OEChem-08212117123D

 61 66  0     1  0  0  0  0  0999 V2000
  -20.9291   -5.1052  -29.5087 C   0  0  0  0  0  0  0  0  0  0  0  0
  -21.7218   -4.3655  -30.3885 C   0  0  0  0  0  0  0  0  0  0  0  0
  -21.0521   -4.8695  -28.1176 C   0  0  0  0  0  0  0  0  0  0  0  0
  -21.9767   -3.9421  -27.5825 C   0  0  0  0  0  0  0  0  0  0  0  0
  -22.5952   -3.4391  -29.8630 C   0  0  0  0  0  0  0  0  0  0  0  0
  -22.7529   -3.1934  -28.4988 C   0  0  0  0  0  0  0  0  0  0  0  0
  -21.9175   -4.2606  -31.7781 C   0  0  0  0  0  0  0  0  0  0  0  0
  -18.9190   -3.7552  -26.1950 C   0  0  0  0  0  0  0  0  0  0  0  0
  -19.2061   -6.0315  -25.0192 C   0  0  0  0  0  0  0  0  0  0  0  0
  -16.9649   -5.2119  -25.7144 C   0  0  0  0  0  0  0  0  0  0  0  0
  -20.1673   -5.6702  -27.1998 C   0  0  0  0  0  0  0  0  0  0  0  0
  -19.7221   -5.6670  -34.3797 C   0  0  0  0  0  0  0  0  0  0  0  0
  -19.9356   -4.6477  -33.2660 C   0  0  0  0  0  0  0  0  0  0  0  0
  -21.6495   -6.3504  -33.1379 C   0  0  0  0  0  0  0  0  0  0  0  0
  -23.0743   -2.8276  -25.6495 C   0  0  0  0  0  0  0  0  0  0  0  0
  -21.1985   -4.4622  -25.2355 C   0  0  2  0  0  0  0  0  0  0  0  0
  -20.4246   -6.9115  -33.8577 C   0  0  1  0  0  0  0  0  0  0  0  0
  -23.4412   -3.1514  -24.1985 C   0  0  1  0  0  0  0  0  0  0  0  0
  -21.0589   -3.5262  -23.9998 C   0  0  2  0  0  0  0  0  0  0  0  0
  -19.8561   -4.9313  -25.8743 C   0  0  0  0  0  0  0  0  0  0  0  0
  -24.4011   -4.3342  -24.0844 C   0  0  0  0  0  0  0  0  0  0  0  0
  -20.0963   -3.9884  -22.9124 C   0  0  0  0  0  0  0  0  0  0  0  0
  -19.8031   -7.8375  -35.9178 C   0  0  0  0  0  0  0  0  0  0  0  0
  -22.8365   -3.3426  -32.0926 N   0  0  0  0  0  0  0  0  0  0  0  0
  -17.5684   -4.0657  -26.2115 N   0  0  0  0  0  0  0  0  0  0  0  0
  -17.8263   -6.1208  -25.1167 N   0  0  0  0  0  0  0  0  0  0  0  0
  -22.0948   -3.7728  -26.2008 N   0  0  3  0  0  0  0  0  0  0  0  0
  -21.2142   -5.0354  -32.6758 N   0  0  0  0  0  0  0  0  0  0  0  0
  -19.3234   -2.6286  -26.4820 O   0  0  0  0  0  0  0  0  0  0  0  0
  -19.8611   -6.8400  -24.3600 O   0  0  0  0  0  0  0  0  0  0  0  0
  -15.7468   -5.3909  -25.7635 O   0  0  0  0  0  0  0  0  0  0  0  0
  -23.2627   -2.8220  -30.8763 O   0  0  0  0  0  0  0  0  0  0  0  0
  -22.3260   -3.3882  -23.3448 O   0  0  0  0  0  0  0  0  0  0  0  0
  -20.8059   -7.7705  -34.9138 O   0  0  0  0  0  0  0  0  0  0  0  0
  -23.5581   -2.1886  -28.1343 F   0  0  0  0  0  0  0  0  0  0  0  0
  -20.2243   -5.8416  -29.8844 H   0  0  0  0  0  0  0  0  0  0  0  0
  -20.6749   -6.6248  -27.0041 H   0  0  0  0  0  0  0  0  0  0  0  0
  -19.2290   -5.9139  -27.7169 H   0  0  0  0  0  0  0  0  0  0  0  0
  -20.1318   -5.3122  -35.3297 H   0  0  0  0  0  0  0  0  0  0  0  0
  -18.6506   -5.8626  -34.5008 H   0  0  0  0  0  0  0  0  0  0  0  0
  -19.1187   -4.6767  -32.5366 H   0  0  0  0  0  0  0  0  0  0  0  0
  -20.0098   -3.6326  -33.6743 H   0  0  0  0  0  0  0  0  0  0  0  0
  -22.5211   -6.2753  -33.7987 H   0  0  0  0  0  0  0  0  0  0  0  0
  -21.9028   -6.9676  -32.2675 H   0  0  0  0  0  0  0  0  0  0  0  0
  -23.9830   -2.8887  -26.2835 H   0  0  0  0  0  0  0  0  0  0  0  0
  -22.7858   -1.7659  -25.6879 H   0  0  0  0  0  0  0  0  0  0  0  0
  -21.7581   -5.3533  -24.9112 H   0  0  0  0  0  0  0  0  0  0  0  0
  -19.7711   -7.4833  -33.1669 H   0  0  0  0  0  0  0  0  0  0  0  0
  -24.0088   -2.2566  -23.7643 H   0  0  0  0  0  0  0  0  0  0  0  0
  -20.7349   -2.5154  -24.3086 H   0  0  0  0  0  0  0  0  0  0  0  0
  -23.9319   -5.2350  -24.4804 H   0  0  0  0  0  0  0  0  0  0  0  0
  -25.3111   -4.1320  -24.6496 H   0  0  0  0  0  0  0  0  0  0  0  0
  -24.6635   -4.5022  -23.0398 H   0  0  0  0  0  0  0  0  0  0  0  0
  -20.3718   -4.9858  -22.5700 H   0  0  0  0  0  0  0  0  0  0  0  0
  -20.1319   -3.3017  -22.0667 H   0  0  0  0  0  0  0  0  0  0  0  0
  -19.0789   -4.0167  -23.3028 H   0  0  0  0  0  0  0  0  0  0  0  0
  -20.1301   -8.5081  -36.7162 H   0  0  0  0  0  0  0  0  0  0  0  0
  -18.8711   -8.2029  -35.4794 H   0  0  0  0  0  0  0  0  0  0  0  0
  -19.6431   -6.8375  -36.3278 H   0  0  0  0  0  0  0  0  0  0  0  0
  -16.9522   -3.3782  -26.6344 H   0  0  0  0  0  0  0  0  0  0  0  0
  -17.3918   -6.9141  -24.6538 H   0  0  0  0  0  0  0  0  0  0  0  0
  1  2  2  0  0  0  0
  1  3  1  0  0  0  0
  2  5  1  0  0  0  0
  2  7  1  0  0  0  0
  3  4  2  0  0  0  0
  3 11  1  0  0  0  0
  4  6  1  0  0  0  0
  4 27  1  0  0  0  0
  5  6  2  0  0  0  0
  5 32  1  0  0  0  0
  6 35  1  0  0  0  0
  7 24  2  0  0  0  0
  7 28  1  0  0  0  0
  8 20  1  0  0  0  0
  8 25  1  0  0  0  0
  8 29  2  0  0  0  0
  9 20  1  0  0  0  0
  9 26  1  0  0  0  0
  9 30  2  0  0  0  0
 10 25  1  0  0  0  0
 10 26  1  0  0  0  0
 10 31  2  0  0  0  0
 11 20  1  0  0  0  0
 12 13  1  0  0  0  0
 12 17  1  0  0  0  0
 13 28  1  0  0  0  0
 14 17  1  0  0  0  0
 14 28  1  0  0  0  0
 15 18  1  0  0  0  0
 15 27  1  0  0  0  0
 16 19  1  0  0  0  0
 16 20  1  0  0  0  0
 16 27  1  0  0  0  0
 17 34  1  0  0  0  0
 18 21  1  0  0  0  0
 18 33  1  0  0  0  0
 19 22  1  0  0  0  0
 19 33  1  0  0  0  0
 23 34  1  0  0  0  0
 24 32  1  0  0  0  0
  1 36  1  0  0  0  0
 11 37  1  0  0  0  0
 11 38  1  0  0  0  0
 12 39  1  0  0  0  0
 12 40  1  0  0  0  0
 13 41  1  0  0  0  0
 13 42  1  0  0  0  0
 14 43  1  0  0  0  0
 14 44  1  0  0  0  0
 15 45  1  0  0  0  0
 15 46  1  0  0  0  0
 16 47  1  0  0  0  0
 17 48  1  0  0  0  0
 18 49  1  0  0  0  0
 19 50  1  0  0  0  0
 21 51  1  0  0  0  0
 21 52  1  0  0  0  0
 21 53  1  0  0  0  0
 22 54  1  0  0  0  0
 22 55  1  0  0  0  0
 22 56  1  0  0  0  0
 23 57  1  0  0  0  0
 23 58  1  0  0  0  0
 23 59  1  0  0  0  0
 25 60  1  0  0  0  0
 26 61  1  0  0  0  0
M  END
> <SMILES>
CO[C@H]1CCN(C1)c1noc2c(c3c(cc12)CC1([C@H]2[C@H](C)O[C@H](C)CN23)C(=O)NC(=O)NC1=O)F

> <FORMATTED_ID>
H3D-004936

> <MOLFORMULA>
C23H26FN5O6

> <Exact Mass>
487.19

> <XLogP>
0.55

> <TPSA_NOPS>
126.5

> <s_m_source_file>
ligprep_h3d.sdf

> <i_m_source_file_index>
713

> <i_lp_mmshare_version>
55123

> <i_f3d_flags>
0

> <s_epik_input>
W0NIM11PW0NASF0xW0NIMl1bQ0gyXU4oW0NIMl0xKWMybm9jKGMzRiljMltjSF1jKFtDSDJdNCljM04oW0NIMl1bQ0BASF0oW0NIM10pT1tDQEhdNVtDSDNdKVtDQEhdNUM0NkMoPU8pW05IXUMoPU8pW05IXUM2PU8=

> <s_epik_cmdline>
J2VwaWtfcHl0aG9uJywgJy1waHQnLCAnMC41JywgJy1waCcsICc3LjUnLCAnLXRuJywgJzgnLCAnLW1hJywgJzUwMCcsICctaW1hZScsICc8aW5maWxlLm1hZT4nLCAnLW9tYWUnLCAnPG91dGZpbGUubWFlPic=

> <r_lp_tautomer_probability>
1

> <r_epik_Ionization_Penalty>
0.36913

> <r_epik_Ionization_Penalty_Charging>
0

> <r_epik_Ionization_Penalty_Neutral>
0.36913

> <r_epik_State_Penalty>
0.366447

> <r_epik_Charging_Adjusted_Penalty>
0.366447

> <i_epik_Tot_Q>
0

> <i_epik_Tot_abs_Q>
0

> <s_lp_Force_Field>
S-OPLS

> <r_lp_Energy>
47.3514

> <b_lp_Chiralities_Consistent>
1

> <s_lp_Variant>
ligprep_h3d.sdf:713-1

> <ROCS_ShapeQuery>
_7L13

> <ROCS_TanimotoCombo>
0.777 

> <ROCS_ShapeTanimoto>
0.640 

> <ROCS_ColorTanimoto>
0.136 

> <ROCS_RefTversky>
0.779 

> <ROCS_RefColorTversky>
0.299 

> <ROCS_RefTverskyCombo>
1.078 

> <ROCS_FitTversky>
0.782 

> <ROCS_FitColorTversky>
0.200 

> <ROCS_FitTverskyCombo>
0.982 

> <ROCS_ColorScore>
-2.764

> <ROCS_Overlap>
1293.955

> <ROCS_Rank>
371                 

$$$$
ligprep_h3d.sdf:561_1627
  -OEChem-08212117123D

 78 81  0     1  0  0  0  0  0999 V2000
  -15.0397   -5.7925  -24.9366 C   0  0  0  0  0  0  0  0  0  0  0  0
  -16.1641   -6.4869  -24.4905 C   0  0  0  0  0  0  0  0  0  0  0  0
  -15.1918   -4.6043  -25.6514 C   0  0  0  0  0  0  0  0  0  0  0  0
  -25.0125   -1.6442  -31.9746 C   0  0  0  0  0  0  0  0  0  0  0  0
  -19.7469   -8.9493  -28.8870 C   0  0  0  0  0  0  0  0  0  0  0  0
  -17.4407   -5.9934  -24.7593 C   0  0  0  0  0  0  0  0  0  0  0  0
  -16.4685   -4.1108  -25.9201 C   0  0  0  0  0  0  0  0  0  0  0  0
  -24.0258   -2.2883  -32.7587 C   0  0  0  0  0  0  0  0  0  0  0  0
  -19.3894   -8.7264  -30.2481 C   0  0  0  0  0  0  0  0  0  0  0  0
  -23.6951   -5.3422  -24.1143 C   0  0  0  0  0  0  0  0  0  0  0  0
  -24.5180   -1.6093  -30.6916 C   0  0  0  0  0  0  0  0  0  0  0  0
  -21.0600   -9.3438  -28.7548 C   0  0  0  0  0  0  0  0  0  0  0  0
  -17.5929   -4.8053  -25.4741 C   0  0  0  0  0  0  0  0  0  0  0  0
  -23.8208   -4.2609  -24.9611 C   0  0  0  0  0  0  0  0  0  0  0  0
  -22.9986   -2.6009  -31.8990 C   0  0  0  0  0  0  0  0  0  0  0  0
  -20.4431   -8.9593  -31.1046 C   0  0  0  0  0  0  0  0  0  0  0  0
  -25.5184   -4.4683  -23.2647 C   0  0  0  0  0  0  0  0  0  0  0  0
  -20.1791   -7.3195  -34.6087 C   0  0  0  0  0  0  0  0  0  0  0  0
  -19.1559   -6.9790  -35.4012 C   0  0  0  0  0  0  0  0  0  0  0  0
  -22.9691   -3.8330  -26.1006 C   0  0  0  0  0  0  0  0  0  0  0  0
  -20.3882   -5.4125  -31.7154 C   0  0  0  0  0  0  0  0  0  0  0  0
  -21.4639   -4.9277  -28.7325 C   0  0  0  0  0  0  0  0  0  0  0  0
  -26.6977   -4.2626  -22.3960 C   0  0  0  0  0  0  0  0  0  0  0  0
  -17.8809   -6.3923  -37.7408 C   0  0  0  0  0  0  0  0  0  0  0  0
  -18.9732   -4.2711  -25.7653 C   0  0  0  0  0  0  0  0  0  0  0  0
  -21.6667   -3.2850  -32.0878 C   0  0  0  0  0  0  0  0  0  0  0  0
  -20.4749   -8.8392  -32.6091 C   0  0  0  0  0  0  0  0  0  0  0  0
  -19.5154   -4.8113  -27.0958 C   0  0  0  0  0  0  0  0  0  0  0  0
  -20.0543   -7.4498  -33.1139 C   0  0  2  0  0  0  0  0  0  0  0  0
  -21.4964   -4.5109  -31.1831 C   0  0  2  0  0  0  0  0  0  0  0  0
  -20.9351   -4.3375  -27.4289 C   0  0  2  0  0  0  0  0  0  0  0  0
  -24.6674   -5.4626  -23.1406 N   0  0  0  0  0  0  0  0  0  0  0  0
  -21.8679   -4.6341  -26.3728 N   0  0  0  0  0  0  0  0  0  0  0  0
  -20.8860   -6.4275  -32.5207 N   0  0  0  0  0  0  0  0  0  0  0  0
  -21.1387   -4.1464  -29.8321 N   0  0  0  0  0  0  0  0  0  0  0  0
  -23.2594   -2.8104  -26.7158 O   0  0  0  0  0  0  0  0  0  0  0  0
  -19.2048   -5.2654  -31.4172 O   0  0  0  0  0  0  0  0  0  0  0  0
  -22.0778   -5.9915  -28.7842 O   0  0  0  0  0  0  0  0  0  0  0  0
  -19.7814   -8.1677  -37.6184 O   0  0  0  0  0  0  0  0  0  0  0  0
  -20.3651   -5.7330  -37.3262 O   0  0  0  0  0  0  0  0  0  0  0  0
  -23.2908   -2.1903  -30.6370 O   0  0  0  0  0  0  0  0  0  0  0  0
  -21.8561   -9.4443  -30.2676 S   0  0  0  0  0  0  0  0  0  0  0  0
  -25.2103   -3.3522  -24.5313 S   0  0  0  0  0  0  0  0  0  0  0  0
  -19.4674   -6.8513  -37.0867 S   0  0  0  0  0  0  0  0  0  0  0  0
  -14.0457   -6.1762  -24.7261 H   0  0  0  0  0  0  0  0  0  0  0  0
  -16.0457   -7.4115  -23.9330 H   0  0  0  0  0  0  0  0  0  0  0  0
  -14.3166   -4.0628  -25.9978 H   0  0  0  0  0  0  0  0  0  0  0  0
  -25.9650   -1.2546  -32.3034 H   0  0  0  0  0  0  0  0  0  0  0  0
  -19.0754   -8.8276  -28.0471 H   0  0  0  0  0  0  0  0  0  0  0  0
  -18.3111   -6.5413  -24.4080 H   0  0  0  0  0  0  0  0  0  0  0  0
  -16.5774   -3.1843  -26.4778 H   0  0  0  0  0  0  0  0  0  0  0  0
  -24.0622   -2.4975  -33.8184 H   0  0  0  0  0  0  0  0  0  0  0  0
  -18.4069   -8.4126  -30.5775 H   0  0  0  0  0  0  0  0  0  0  0  0
  -22.9064   -6.0818  -24.1600 H   0  0  0  0  0  0  0  0  0  0  0  0
  -24.8963   -1.2267  -29.7550 H   0  0  0  0  0  0  0  0  0  0  0  0
  -21.5901   -9.5776  -27.8423 H   0  0  0  0  0  0  0  0  0  0  0  0
  -21.1617   -7.5047  -35.0388 H   0  0  0  0  0  0  0  0  0  0  0  0
  -18.1619   -6.7778  -35.0218 H   0  0  0  0  0  0  0  0  0  0  0  0
  -26.4417   -3.6398  -21.5247 H   0  0  0  0  0  0  0  0  0  0  0  0
  -27.5229   -3.7680  -22.9339 H   0  0  0  0  0  0  0  0  0  0  0  0
  -27.1035   -5.2168  -22.0216 H   0  0  0  0  0  0  0  0  0  0  0  0
  -17.9725   -6.2844  -38.8227 H   0  0  0  0  0  0  0  0  0  0  0  0
  -17.5814   -5.4468  -37.2862 H   0  0  0  0  0  0  0  0  0  0  0  0
  -17.1661   -7.1788  -37.4941 H   0  0  0  0  0  0  0  0  0  0  0  0
  -18.9372   -3.1749  -25.7801 H   0  0  0  0  0  0  0  0  0  0  0  0
  -19.6411   -4.5404  -24.9380 H   0  0  0  0  0  0  0  0  0  0  0  0
  -21.5438   -3.5698  -33.1415 H   0  0  0  0  0  0  0  0  0  0  0  0
  -20.8729   -2.5516  -31.8934 H   0  0  0  0  0  0  0  0  0  0  0  0
  -21.4750   -9.0979  -32.9838 H   0  0  0  0  0  0  0  0  0  0  0  0
  -19.8074   -9.6044  -33.0291 H   0  0  0  0  0  0  0  0  0  0  0  0
  -18.8419   -4.5068  -27.9082 H   0  0  0  0  0  0  0  0  0  0  0  0
  -19.4935   -5.9086  -27.0748 H   0  0  0  0  0  0  0  0  0  0  0  0
  -19.0300   -7.2296  -32.7895 H   0  0  0  0  0  0  0  0  0  0  0  0
  -22.4265   -5.0874  -31.1154 H   0  0  0  0  0  0  0  0  0  0  0  0
  -20.9325   -3.2451  -27.5282 H   0  0  0  0  0  0  0  0  0  0  0  0
  -21.6599   -5.4315  -25.7765 H   0  0  0  0  0  0  0  0  0  0  0  0
  -21.8850   -6.4531  -32.7022 H   0  0  0  0  0  0  0  0  0  0  0  0
  -20.6277   -3.2818  -29.6806 H   0  0  0  0  0  0  0  0  0  0  0  0
  1  2  2  0  0  0  0
  1  3  1  0  0  0  0
  2  6  1  0  0  0  0
  3  7  2  0  0  0  0
  4  8  1  0  0  0  0
  4 11  2  0  0  0  0
  5  9  1  0  0  0  0
  5 12  2  0  0  0  0
  6 13  2  0  0  0  0
  7 13  1  0  0  0  0
  8 15  2  0  0  0  0
  9 16  2  0  0  0  0
 10 14  2  0  0  0  0
 10 32  1  0  0  0  0
 11 41  1  0  0  0  0
 12 42  1  0  0  0  0
 13 25  1  0  0  0  0
 14 20  1  0  0  0  0
 14 43  1  0  0  0  0
 15 26  1  0  0  0  0
 15 41  1  0  0  0  0
 16 27  1  0  0  0  0
 16 42  1  0  0  0  0
 17 23  1  0  0  0  0
 17 32  2  0  0  0  0
 17 43  1  0  0  0  0
 18 19  2  0  0  0  0
 18 29  1  0  0  0  0
 19 44  1  0  0  0  0
 20 33  1  0  0  0  0
 20 36  2  0  0  0  0
 21 30  1  0  0  0  0
 21 34  1  0  0  0  0
 21 37  2  0  0  0  0
 22 31  1  0  0  0  0
 22 35  1  0  0  0  0
 22 38  2  0  0  0  0
 24 44  1  0  0  0  0
 25 28  1  0  0  0  0
 26 30  1  0  0  0  0
 27 29  1  0  0  0  0
 28 31  1  0  0  0  0
 29 34  1  0  0  0  0
 30 35  1  0  0  0  0
 31 33  1  0  0  0  0
 39 44  2  0  0  0  0
 40 44  2  0  0  0  0
  1 45  1  0  0  0  0
  2 46  1  0  0  0  0
  3 47  1  0  0  0  0
  4 48  1  0  0  0  0
  5 49  1  0  0  0  0
  6 50  1  0  0  0  0
  7 51  1  0  0  0  0
  8 52  1  0  0  0  0
  9 53  1  0  0  0  0
 10 54  1  0  0  0  0
 11 55  1  0  0  0  0
 12 56  1  0  0  0  0
 18 57  1  0  0  0  0
 19 58  1  0  0  0  0
 23 59  1  0  0  0  0
 23 60  1  0  0  0  0
 23 61  1  0  0  0  0
 24 62  1  0  0  0  0
 24 63  1  0  0  0  0
 24 64  1  0  0  0  0
 25 65  1  0  0  0  0
 25 66  1  0  0  0  0
 26 67  1  0  0  0  0
 26 68  1  0  0  0  0
 27 69  1  0  0  0  0
 27 70  1  0  0  0  0
 28 71  1  0  0  0  0
 28 72  1  0  0  0  0
 29 73  1  0  0  0  0
 30 74  1  0  0  0  0
 31 75  1  0  0  0  0
 33 76  1  0  0  0  0
 34 77  1  0  0  0  0
 35 78  1  0  0  0  0
M  END
> <SMILES>
Cc1ncc(s1)C(=O)N[C@@H](CCc1ccccc1)C(=O)N[C@@H](Cc1ccco1)C(=O)N[C@@H](Cc1cccs1)/C=C/S(=O)(=O)C

> <FORMATTED_ID>
H3D-004275

> <MOLFORMULA>
C31H34N4O6S3

> <Exact Mass>
654.16

> <XLogP>
4.5

> <TPSA_NOPS>
212.6

> <s_m_source_file>
ligprep_h3d.sdf

> <i_m_source_file_index>
561

> <i_lp_mmshare_version>
55123

> <i_f3d_flags>
0

> <s_epik_input>
W2NIXTFbY0hdW2NIXVtjSF1bY0hdYzFbQ0gyXVtDSDJdW0NASF0oW05IXUMoPU8pYyhzMilbY0hdbmMyW0NIM10pQyg9TylbTkhdW0NAQEhdKFtDSDJdYzNbY0hdW2NIXVtjSF1vMylDKD1PKVtOSF1bQ0BIXSgvW0NIXT1bQ0hdL1MoPU8pKD1PKVtDSDNdKVtDSDJdYzRbY0hdW2NIXVtjSF1zNA==

> <s_epik_cmdline>
J2VwaWtfcHl0aG9uJywgJy1waHQnLCAnMC41JywgJy1waCcsICc3LjUnLCAnLXRuJywgJzgnLCAnLW1hJywgJzUwMCcsICctaW1hZScsICc8aW5maWxlLm1hZT4nLCAnLW9tYWUnLCAnPG91dGZpbGUubWFlPic=

> <r_lp_tautomer_probability>
1

> <r_epik_Ionization_Penalty>
1.49448e-05

> <r_epik_Ionization_Penalty_Charging>
0

> <r_epik_Ionization_Penalty_Neutral>
1.49448e-05

> <r_epik_State_Penalty>
-0

> <r_epik_Charging_Adjusted_Penalty>
0

> <i_epik_Tot_Q>
0

> <i_epik_Tot_abs_Q>
0

> <s_lp_Force_Field>
S-OPLS

> <r_lp_Energy>
4.04555

> <b_lp_Chiralities_Consistent>
1

> <s_lp_Variant>
ligprep_h3d.sdf:561-1

> <ROCS_ShapeQuery>
_7L13

> <ROCS_TanimotoCombo>
0.622 

> <ROCS_ShapeTanimoto>
0.577 

> <ROCS_ColorTanimoto>
0.046 

> <ROCS_RefTversky>
0.779 

> <ROCS_RefColorTversky>
0.109 

> <ROCS_RefTverskyCombo>
0.888 

> <ROCS_FitTversky>
0.689 

> <ROCS_FitColorTversky>
0.073 

> <ROCS_FitTverskyCombo>
0.762 

> <ROCS_ColorScore>
-1.008

> <ROCS_Overlap>
1303.607

> <ROCS_Rank>
372                 

$$$$
ligprep_h3d.sdf:5532_209
  -OEChem-08212117123D

 56 60  0     0  0  0  0  0  0999 V2000
  -24.3225   -4.1082  -21.2332 C   0  0  0  0  0  0  0  0  0  0  0  0
  -19.9791   -8.8287  -35.2961 C   0  0  0  0  0  0  0  0  0  0  0  0
  -15.3623   -3.0081  -25.7817 C   0  0  0  0  0  0  0  0  0  0  0  0
  -16.2023   -3.1260  -24.6744 C   0  0  0  0  0  0  0  0  0  0  0  0
  -15.6194   -3.7505  -26.9343 C   0  0  0  0  0  0  0  0  0  0  0  0
  -25.5645   -5.5707  -24.4229 C   0  0  0  0  0  0  0  0  0  0  0  0
  -19.8084   -5.1776  -36.0001 C   0  0  0  0  0  0  0  0  0  0  0  0
  -25.3935   -5.3314  -23.0594 C   0  0  0  0  0  0  0  0  0  0  0  0
  -19.6840   -6.5583  -36.1542 C   0  0  0  0  0  0  0  0  0  0  0  0
  -24.8395   -4.8310  -25.3572 C   0  0  0  0  0  0  0  0  0  0  0  0
  -20.3561   -4.6530  -34.8294 C   0  0  0  0  0  0  0  0  0  0  0  0
  -17.2992   -3.9864  -24.7196 C   0  0  0  0  0  0  0  0  0  0  0  0
  -16.7164   -4.6108  -26.9795 C   0  0  0  0  0  0  0  0  0  0  0  0
  -23.7724   -3.6126  -23.5645 C   0  0  0  0  0  0  0  0  0  0  0  0
  -20.6551   -6.8899  -33.9669 C   0  0  0  0  0  0  0  0  0  0  0  0
  -20.2408   -5.3212  -29.0998 C   0  0  0  0  0  0  0  0  0  0  0  0
  -22.5783   -3.7616  -28.9648 C   0  0  0  0  0  0  0  0  0  0  0  0
  -24.4975   -4.3524  -22.6302 C   0  0  0  0  0  0  0  0  0  0  0  0
  -20.1074   -7.4144  -35.1376 C   0  0  0  0  0  0  0  0  0  0  0  0
  -20.7177   -4.8747  -27.8634 C   0  0  0  0  0  0  0  0  0  0  0  0
  -23.9434   -3.8520  -24.9280 C   0  0  0  0  0  0  0  0  0  0  0  0
  -20.7794   -5.5091  -33.8128 C   0  0  0  0  0  0  0  0  0  0  0  0
  -21.8743   -4.1055  -27.8209 C   0  0  0  0  0  0  0  0  0  0  0  0
  -17.5563   -4.7288  -25.8721 C   0  0  0  0  0  0  0  0  0  0  0  0
  -20.9928   -4.9414  -30.2053 C   0  0  0  0  0  0  0  0  0  0  0  0
  -20.3270   -4.9896  -26.5120 C   0  0  0  0  0  0  0  0  0  0  0  0
  -23.1615   -3.0540  -25.9360 C   0  0  0  0  0  0  0  0  0  0  0  0
  -21.3686   -4.9446  -32.5536 C   0  0  0  0  0  0  0  0  0  0  0  0
  -24.1804   -3.9100  -20.0986 N   0  0  0  0  0  0  0  0  0  0  0  0
  -19.8750   -9.9774  -35.4249 N   0  0  0  0  0  0  0  0  0  0  0  0
  -22.1209   -4.1913  -30.1652 N   0  0  0  0  0  0  0  0  0  0  0  0
  -21.1536   -4.3545  -25.6775 N   0  0  0  0  0  0  0  0  0  0  0  0
  -22.0796   -3.8294  -26.4977 N   0  0  0  0  0  0  0  0  0  0  0  0
  -18.5502   -6.8718  -26.8827 O   0  0  0  0  0  0  0  0  0  0  0  0
  -19.2358   -6.2297  -24.5442 O   0  0  0  0  0  0  0  0  0  0  0  0
  -20.5750   -5.3518  -31.4467 O   0  0  0  0  0  0  0  0  0  0  0  0
  -18.9578   -5.8318  -25.9283 S   0  0  0  0  0  0  0  0  0  0  0  0
  -14.5076   -2.3388  -25.7470 H   0  0  0  0  0  0  0  0  0  0  0  0
  -16.0018   -2.5490  -23.7764 H   0  0  0  0  0  0  0  0  0  0  0  0
  -14.9649   -3.6589  -27.7960 H   0  0  0  0  0  0  0  0  0  0  0  0
  -26.2629   -6.3322  -24.7576 H   0  0  0  0  0  0  0  0  0  0  0  0
  -19.4799   -4.5106  -36.7919 H   0  0  0  0  0  0  0  0  0  0  0  0
  -25.9655   -5.9165  -22.3432 H   0  0  0  0  0  0  0  0  0  0  0  0
  -19.2547   -6.9522  -37.0723 H   0  0  0  0  0  0  0  0  0  0  0  0
  -24.9792   -5.0252  -26.4174 H   0  0  0  0  0  0  0  0  0  0  0  0
  -20.4483   -3.5758  -34.7184 H   0  0  0  0  0  0  0  0  0  0  0  0
  -17.9467   -4.0714  -23.8509 H   0  0  0  0  0  0  0  0  0  0  0  0
  -16.9065   -5.1853  -27.8820 H   0  0  0  0  0  0  0  0  0  0  0  0
  -23.0728   -2.8468  -23.2357 H   0  0  0  0  0  0  0  0  0  0  0  0
  -20.9881   -7.5527  -33.1708 H   0  0  0  0  0  0  0  0  0  0  0  0
  -19.3458   -5.9248  -29.1930 H   0  0  0  0  0  0  0  0  0  0  0  0
  -23.4805   -3.1650  -28.9617 H   0  0  0  0  0  0  0  0  0  0  0  0
  -23.8041   -2.7159  -26.7580 H   0  0  0  0  0  0  0  0  0  0  0  0
  -22.7359   -2.1507  -25.4823 H   0  0  0  0  0  0  0  0  0  0  0  0
  -21.3959   -3.8502  -32.5901 H   0  0  0  0  0  0  0  0  0  0  0  0
  -22.3942   -5.3021  -32.4112 H   0  0  0  0  0  0  0  0  0  0  0  0
  1 18  1  0  0  0  0
  1 29  3  0  0  0  0
  2 19  1  0  0  0  0
  2 30  3  0  0  0  0
  3  4  2  0  0  0  0
  3  5  1  0  0  0  0
  4 12  1  0  0  0  0
  5 13  2  0  0  0  0
  6  8  2  0  0  0  0
  6 10  1  0  0  0  0
  7  9  2  0  0  0  0
  7 11  1  0  0  0  0
  8 18  1  0  0  0  0
  9 19  1  0  0  0  0
 10 21  2  0  0  0  0
 11 22  2  0  0  0  0
 12 24  2  0  0  0  0
 13 24  1  0  0  0  0
 14 18  2  0  0  0  0
 14 21  1  0  0  0  0
 15 19  2  0  0  0  0
 15 22  1  0  0  0  0
 16 20  2  0  0  0  0
 16 25  1  0  0  0  0
 17 23  2  0  0  0  0
 17 31  1  0  0  0  0
 20 23  1  0  0  0  0
 20 26  1  0  0  0  0
 21 27  1  0  0  0  0
 22 28  1  0  0  0  0
 23 33  1  0  0  0  0
 24 37  1  0  0  0  0
 25 31  2  0  0  0  0
 25 36  1  0  0  0  0
 26 32  2  0  0  0  0
 26 37  1  0  0  0  0
 27 33  1  0  0  0  0
 28 36  1  0  0  0  0
 32 33  1  0  0  0  0
 34 37  2  0  0  0  0
 35 37  2  0  0  0  0
  3 38  1  0  0  0  0
  4 39  1  0  0  0  0
  5 40  1  0  0  0  0
  6 41  1  0  0  0  0
  7 42  1  0  0  0  0
  8 43  1  0  0  0  0
  9 44  1  0  0  0  0
 10 45  1  0  0  0  0
 11 46  1  0  0  0  0
 12 47  1  0  0  0  0
 13 48  1  0  0  0  0
 14 49  1  0  0  0  0
 15 50  1  0  0  0  0
 16 51  1  0  0  0  0
 17 52  1  0  0  0  0
 27 53  1  0  0  0  0
 27 54  1  0  0  0  0
 28 55  1  0  0  0  0
 28 56  1  0  0  0  0
M  END
> <SMILES>
O=S(=O)(c1ccccc1)c1nn(c2cnc(cc12)OCc1cccc(c1)C#N)Cc1cccc(c1)C#N

> <FORMATTED_ID>
H3D-012724

> <MOLFORMULA>
C28H19N5O3S

> <Exact Mass>
505.12

> <XLogP>
5.24

> <TPSA_NOPS>
130

> <s_m_source_file>
ligprep_h3d.sdf

> <i_m_source_file_index>
5532

> <i_lp_mmshare_version>
55123

> <i_f3d_flags>
0

> <s_epik_input>
TiNDYyhbY0hdMSlbY0hdW2NIXVtjSF1jMVtDSDJdbjJuYyhTKD1PKSg9TyljM1tjSF1bY0hdW2NIXVtjSF1bY0hdMyljKGMyNClbY0hdYyhuW2NIXTQpT1tDSDJdYzVbY0hdW2NIXVtjSF1jKFtjSF01KUMjTg==

> <s_epik_cmdline>
J2VwaWtfcHl0aG9uJywgJy1waHQnLCAnMC41JywgJy1waCcsICc3LjUnLCAnLXRuJywgJzgnLCAnLW1hJywgJzUwMCcsICctaW1hZScsICc8aW5maWxlLm1hZT4nLCAnLW9tYWUnLCAnPG91dGZpbGUubWFlPic=

> <r_lp_tautomer_probability>
1

> <r_epik_Ionization_Penalty>
2.0581e-12

> <r_epik_Ionization_Penalty_Charging>
0

> <r_epik_Ionization_Penalty_Neutral>
2.0581e-12

> <r_epik_State_Penalty>
-0

> <r_epik_Charging_Adjusted_Penalty>
0

> <i_epik_Tot_Q>
0

> <i_epik_Tot_abs_Q>
0

> <s_lp_Force_Field>
S-OPLS

> <r_lp_Energy>
39.1031

> <b_lp_Chiralities_Consistent>
1

> <s_lp_Variant>
ligprep_h3d.sdf:5532-1

> <ROCS_ShapeQuery>
_7L13

> <ROCS_TanimotoCombo>
0.733 

> <ROCS_ShapeTanimoto>
0.629 

> <ROCS_ColorTanimoto>
0.104 

> <ROCS_RefTversky>
0.779 

> <ROCS_RefColorTversky>
0.217 

> <ROCS_RefTverskyCombo>
0.996 

> <ROCS_FitTversky>
0.766 

> <ROCS_FitColorTversky>
0.167 

> <ROCS_FitTverskyCombo>
0.933 

> <ROCS_ColorScore>
-1.985

> <ROCS_Overlap>
1295.012

> <ROCS_Rank>
373                 

$$$$
ligprep_h3d.sdf:1072_905
  -OEChem-08212117123D

 69 73  0     0  0  0  0  0  0999 V2000
  -19.6679   -3.9354  -32.1545 C   0  0  0  0  0  0  0  0  0  0  0  0
  -20.4625   -6.2153  -32.0667 C   0  0  0  0  0  0  0  0  0  0  0  0
  -19.0847   -4.1865  -33.3964 C   0  0  0  0  0  0  0  0  0  0  0  0
  -19.8793   -6.4664  -33.3087 C   0  0  0  0  0  0  0  0  0  0  0  0
  -17.0697   -6.5484  -26.3360 C   0  0  0  0  0  0  0  0  0  0  0  0
  -22.8674   -3.9745  -28.8943 C   0  0  0  0  0  0  0  0  0  0  0  0
  -20.7704   -4.5686  -25.3560 C   0  0  0  0  0  0  0  0  0  0  0  0
  -16.7495   -5.1788  -26.3957 C   0  0  0  0  0  0  0  0  0  0  0  0
  -20.8479   -4.6350  -27.7715 C   0  0  0  0  0  0  0  0  0  0  0  0
  -20.3568   -4.9499  -31.4896 C   0  0  0  0  0  0  0  0  0  0  0  0
  -20.9643   -4.6882  -30.1954 C   0  0  0  0  0  0  0  0  0  0  0  0
  -19.1904   -5.4520  -33.9735 C   0  0  0  0  0  0  0  0  0  0  0  0
  -22.2742   -4.2293  -30.1333 C   0  0  0  0  0  0  0  0  0  0  0  0
  -20.2509   -4.8913  -29.0176 C   0  0  0  0  0  0  0  0  0  0  0  0
  -22.1775   -4.1690  -27.7009 C   0  0  0  0  0  0  0  0  0  0  0  0
  -20.1528   -4.8307  -26.5705 C   0  0  0  0  0  0  0  0  0  0  0  0
  -22.0737   -4.1157  -25.3876 C   0  0  0  0  0  0  0  0  0  0  0  0
  -18.4414   -6.5833  -26.3968 C   0  0  0  0  0  0  0  0  0  0  0  0
  -19.4599   -7.4034  -36.8787 C   0  0  0  0  0  0  0  0  0  0  0  0
  -22.7792   -3.8238  -24.1516 C   0  0  0  0  0  0  0  0  0  0  0  0
  -20.5306   -7.7126  -37.9173 C   0  0  0  0  0  0  0  0  0  0  0  0
  -20.7173   -5.2951  -36.4659 C   0  0  0  0  0  0  0  0  0  0  0  0
  -21.4123   -5.5588  -37.7840 C   0  0  0  0  0  0  0  0  0  0  0  0
  -23.0852   -3.9930  -31.3678 C   0  0  0  0  0  0  0  0  0  0  0  0
  -18.8399   -5.3886  -29.1632 C   0  0  0  0  0  0  0  0  0  0  0  0
  -19.3743   -7.7271  -26.3775 C   0  0  0  0  0  0  0  0  0  0  0  0
  -18.5667   -5.7205  -35.3013 C   0  0  0  0  0  0  0  0  0  0  0  0
  -25.0114   -3.7305  -23.0116 C   0  0  0  0  0  0  0  0  0  0  0  0
  -26.2178   -4.6511  -23.0401 C   0  0  0  0  0  0  0  0  0  0  0  0
  -17.8308   -4.4000  -26.4876 N   0  0  0  0  0  0  0  0  0  0  0  0
  -22.7794   -3.9137  -26.5238 N   0  0  0  0  0  0  0  0  0  0  0  0
  -18.8438   -5.2831  -26.4862 N   0  0  0  0  0  0  0  0  0  0  0  0
  -19.5418   -6.1414  -36.2955 N   0  0  0  0  0  0  0  0  0  0  0  0
  -24.1684   -4.0007  -24.1541 N   0  0  0  0  0  0  0  0  0  0  0  0
  -18.5707   -8.2257  -36.6523 O   0  0  0  0  0  0  0  0  0  0  0  0
  -22.1612   -3.4154  -23.1514 O   0  0  0  0  0  0  0  0  0  0  0  0
  -21.7140   -6.9470  -37.8463 O   0  0  0  0  0  0  0  0  0  0  0  0
  -25.7798   -6.0039  -23.0327 O   0  0  0  0  0  0  0  0  0  0  0  0
  -19.5762   -2.9439  -31.7174 H   0  0  0  0  0  0  0  0  0  0  0  0
  -20.9967   -7.0163  -31.5611 H   0  0  0  0  0  0  0  0  0  0  0  0
  -18.5490   -3.3906  -33.9068 H   0  0  0  0  0  0  0  0  0  0  0  0
  -19.9671   -7.4553  -33.7512 H   0  0  0  0  0  0  0  0  0  0  0  0
  -16.3981   -7.3909  -26.2599 H   0  0  0  0  0  0  0  0  0  0  0  0
  -23.8953   -3.6151  -28.8607 H   0  0  0  0  0  0  0  0  0  0  0  0
  -20.2543   -4.7119  -24.4107 H   0  0  0  0  0  0  0  0  0  0  0  0
  -15.7733   -4.7159  -26.3763 H   0  0  0  0  0  0  0  0  0  0  0  0
  -20.0832   -7.5922  -38.9109 H   0  0  0  0  0  0  0  0  0  0  0  0
  -20.8139   -8.7643  -37.8049 H   0  0  0  0  0  0  0  0  0  0  0  0
  -20.4143   -4.2460  -36.4053 H   0  0  0  0  0  0  0  0  0  0  0  0
  -21.3888   -5.5213  -35.6312 H   0  0  0  0  0  0  0  0  0  0  0  0
  -22.3545   -5.0040  -37.8312 H   0  0  0  0  0  0  0  0  0  0  0  0
  -20.8014   -5.2591  -38.6438 H   0  0  0  0  0  0  0  0  0  0  0  0
  -22.9508   -2.9634  -31.7164 H   0  0  0  0  0  0  0  0  0  0  0  0
  -22.7889   -4.6776  -32.1709 H   0  0  0  0  0  0  0  0  0  0  0  0
  -24.1512   -4.1635  -31.1774 H   0  0  0  0  0  0  0  0  0  0  0  0
  -18.8306   -6.4814  -29.1616 H   0  0  0  0  0  0  0  0  0  0  0  0
  -18.3974   -5.0288  -30.0963 H   0  0  0  0  0  0  0  0  0  0  0  0
  -18.2149   -5.0244  -28.3430 H   0  0  0  0  0  0  0  0  0  0  0  0
  -19.6722   -7.9793  -25.3467 H   0  0  0  0  0  0  0  0  0  0  0  0
  -20.2939   -7.5207  -26.9512 H   0  0  0  0  0  0  0  0  0  0  0  0
  -18.9301   -8.6308  -26.8288 H   0  0  0  0  0  0  0  0  0  0  0  0
  -18.0637   -4.8245  -35.6912 H   0  0  0  0  0  0  0  0  0  0  0  0
  -17.8043   -6.5090  -35.2363 H   0  0  0  0  0  0  0  0  0  0  0  0
  -25.3136   -2.6791  -23.0494 H   0  0  0  0  0  0  0  0  0  0  0  0
  -24.4229   -3.9019  -22.1053 H   0  0  0  0  0  0  0  0  0  0  0  0
  -26.7927   -4.4872  -23.9569 H   0  0  0  0  0  0  0  0  0  0  0  0
  -26.8697   -4.4873  -22.1759 H   0  0  0  0  0  0  0  0  0  0  0  0
  -24.6311   -4.2751  -25.0145 H   0  0  0  0  0  0  0  0  0  0  0  0
  -26.5779   -6.5561  -23.0515 H   0  0  0  0  0  0  0  0  0  0  0  0
  1  3  1  0  0  0  0
  1 10  2  0  0  0  0
  2  4  2  0  0  0  0
  2 10  1  0  0  0  0
  3 12  2  0  0  0  0
  4 12  1  0  0  0  0
  5  8  1  0  0  0  0
  5 18  2  0  0  0  0
  6 13  2  0  0  0  0
  6 15  1  0  0  0  0
  7 16  1  0  0  0  0
  7 17  2  0  0  0  0
  8 30  2  0  0  0  0
  9 14  1  0  0  0  0
  9 15  1  0  0  0  0
  9 16  2  0  0  0  0
 10 11  1  0  0  0  0
 11 13  1  0  0  0  0
 11 14  2  0  0  0  0
 12 27  1  0  0  0  0
 13 24  1  0  0  0  0
 14 25  1  0  0  0  0
 15 31  2  0  0  0  0
 16 32  1  0  0  0  0
 17 20  1  0  0  0  0
 17 31  1  0  0  0  0
 18 26  1  0  0  0  0
 18 32  1  0  0  0  0
 19 21  1  0  0  0  0
 19 33  1  0  0  0  0
 19 35  2  0  0  0  0
 20 34  1  0  0  0  0
 20 36  2  0  0  0  0
 21 37  1  0  0  0  0
 22 23  1  0  0  0  0
 22 33  1  0  0  0  0
 23 37  1  0  0  0  0
 27 33  1  0  0  0  0
 28 29  1  0  0  0  0
 28 34  1  0  0  0  0
 29 38  1  0  0  0  0
 30 32  1  0  0  0  0
  1 39  1  0  0  0  0
  2 40  1  0  0  0  0
  3 41  1  0  0  0  0
  4 42  1  0  0  0  0
  5 43  1  0  0  0  0
  6 44  1  0  0  0  0
  7 45  1  0  0  0  0
  8 46  1  0  0  0  0
 21 47  1  0  0  0  0
 21 48  1  0  0  0  0
 22 49  1  0  0  0  0
 22 50  1  0  0  0  0
 23 51  1  0  0  0  0
 23 52  1  0  0  0  0
 24 53  1  0  0  0  0
 24 54  1  0  0  0  0
 24 55  1  0  0  0  0
 25 56  1  0  0  0  0
 25 57  1  0  0  0  0
 25 58  1  0  0  0  0
 26 59  1  0  0  0  0
 26 60  1  0  0  0  0
 26 61  1  0  0  0  0
 27 62  1  0  0  0  0
 27 63  1  0  0  0  0
 28 64  1  0  0  0  0
 28 65  1  0  0  0  0
 29 66  1  0  0  0  0
 29 67  1  0  0  0  0
 34 68  1  0  0  0  0
 38 69  1  0  0  0  0
M  END
> <SMILES>
Cc1cc2nc(cc(c2c(c1-c1ccc(cc1)CN1CCOCC1=O)C)-n1nccc1C)C(=O)NCCO

> <FORMATTED_ID>
H3D-006642

> <MOLFORMULA>
C29H31N5O4

> <Exact Mass>
513.24

> <XLogP>
2.86

> <TPSA_NOPS>
109.6

> <s_m_source_file>
ligprep_h3d.sdf

> <i_m_source_file_index>
1072

> <i_lp_mmshare_version>
55123

> <i_f3d_flags>
0

> <s_epik_input>
W09IXVtDSDJdW0NIMl1bTkhdQyg9TyljKG4xKVtjSF1jKC1uMm5bY0hdW2NIXWMyW0NIM10pYyhjMTMpYyhbQ0gzXSljKGMoW0NIM10pW2NIXTMpLWM0W2NIXVtjSF1jKFtjSF1bY0hdNClbQ0gyXU41W0NIMl1bQ0gyXU9bQ0gyXUM1PU8=

> <s_epik_cmdline>
J2VwaWtfcHl0aG9uJywgJy1waHQnLCAnMC41JywgJy1waCcsICc3LjUnLCAnLXRuJywgJzgnLCAnLW1hJywgJzUwMCcsICctaW1hZScsICc8aW5maWxlLm1hZT4nLCAnLW9tYWUnLCAnPG91dGZpbGUubWFlPic=

> <r_lp_tautomer_probability>
1

> <r_epik_Ionization_Penalty>
1.87101e-05

> <r_epik_Ionization_Penalty_Charging>
0

> <r_epik_Ionization_Penalty_Neutral>
1.87101e-05

> <r_epik_State_Penalty>
-0

> <r_epik_Charging_Adjusted_Penalty>
0

> <i_epik_Tot_Q>
0

> <i_epik_Tot_abs_Q>
0

> <s_lp_Force_Field>
S-OPLS

> <r_lp_Energy>
67.541

> <b_lp_Chiralities_Consistent>
1

> <s_lp_Variant>
ligprep_h3d.sdf:1072-1

> <ROCS_ShapeQuery>
_7L13

> <ROCS_TanimotoCombo>
0.712 

> <ROCS_ShapeTanimoto>
0.610 

> <ROCS_ColorTanimoto>
0.102 

> <ROCS_RefTversky>
0.779 

> <ROCS_RefColorTversky>
0.222 

> <ROCS_RefTverskyCombo>
1.001 

> <ROCS_FitTversky>
0.737 

> <ROCS_FitColorTversky>
0.160 

> <ROCS_FitTverskyCombo>
0.897 

> <ROCS_ColorScore>
-2.045

> <ROCS_Overlap>
1297.630

> <ROCS_Rank>
374                 

$$$$
ligprep_h3d.sdf:1257_1210
  -OEChem-08212117123D

 74 78  0     1  0  0  0  0  0999 V2000
  -20.2227   -3.9995  -32.2645 C   0  0  0  0  0  0  0  0  0  0  0  0
  -20.5276   -6.3806  -31.9919 C   0  0  0  0  0  0  0  0  0  0  0  0
  -19.6898   -4.2132  -33.5356 C   0  0  0  0  0  0  0  0  0  0  0  0
  -19.9946   -6.5944  -33.2631 C   0  0  0  0  0  0  0  0  0  0  0  0
  -16.7422   -5.6407  -26.5526 C   0  0  0  0  0  0  0  0  0  0  0  0
  -23.1087   -4.4534  -28.7527 C   0  0  0  0  0  0  0  0  0  0  0  0
  -20.6901   -4.3758  -25.3742 C   0  0  0  0  0  0  0  0  0  0  0  0
  -16.7130   -4.2421  -26.7102 C   0  0  0  0  0  0  0  0  0  0  0  0
  -20.9228   -4.6204  -27.7681 C   0  0  0  0  0  0  0  0  0  0  0  0
  -20.6416   -5.0832  -31.4925 C   0  0  0  0  0  0  0  0  0  0  0  0
  -21.1968   -4.8605  -30.1679 C   0  0  0  0  0  0  0  0  0  0  0  0
  -19.5757   -5.5106  -34.0349 C   0  0  0  0  0  0  0  0  0  0  0  0
  -22.5650   -4.6685  -30.0216 C   0  0  0  0  0  0  0  0  0  0  0  0
  -20.3756   -4.8367  -29.0442 C   0  0  0  0  0  0  0  0  0  0  0  0
  -22.3111   -4.4249  -27.6121 C   0  0  0  0  0  0  0  0  0  0  0  0
  -20.1194   -4.5916  -26.6202 C   0  0  0  0  0  0  0  0  0  0  0  0
  -22.0573   -4.1949  -25.3212 C   0  0  0  0  0  0  0  0  0  0  0  0
  -18.0788   -5.9522  -26.4976 C   0  0  0  0  0  0  0  0  0  0  0  0
  -19.7423   -7.6615  -36.8506 C   0  0  0  0  0  0  0  0  0  0  0  0
  -22.7184   -3.9660  -24.0480 C   0  0  0  0  0  0  0  0  0  0  0  0
  -21.0133   -8.0171  -37.5891 C   0  0  0  0  0  0  0  0  0  0  0  0
  -21.2517   -5.8662  -36.5384 C   0  0  0  0  0  0  0  0  0  0  0  0
  -21.7317   -6.6782  -37.7270 C   0  0  1  0  0  0  0  0  0  0  0  0
  -23.4922   -4.6830  -31.1952 C   0  0  0  0  0  0  0  0  0  0  0  0
  -18.9067   -5.0518  -29.2802 C   0  0  0  0  0  0  0  0  0  0  0  0
  -18.7551   -7.2549  -26.3412 C   0  0  0  0  0  0  0  0  0  0  0  0
  -28.6971   -4.9187  -24.1582 C   0  0  0  0  0  0  0  0  0  0  0  0
  -19.0057   -5.7392  -35.3939 C   0  0  0  0  0  0  0  0  0  0  0  0
  -24.8366   -4.2420  -22.7334 C   0  0  0  0  0  0  0  0  0  0  0  0
  -26.2276   -4.8272  -22.8849 C   0  0  0  0  0  0  0  0  0  0  0  0
  -17.9340   -3.7024  -26.7528 N   0  0  0  0  0  0  0  0  0  0  0  0
  -22.8678   -4.2152  -26.4041 N   0  0  0  0  0  0  0  0  0  0  0  0
  -18.7430   -4.7674  -26.6212 N   0  0  0  0  0  0  0  0  0  0  0  0
  -19.9372   -6.4089  -36.2758 N   0  0  0  0  0  0  0  0  0  0  0  0
  -24.0390   -4.4158  -23.9261 N   0  0  0  0  0  0  0  0  0  0  0  0
  -18.7647   -8.3897  -36.7622 O   0  0  0  0  0  0  0  0  0  0  0  0
  -22.1276   -3.3756  -23.1253 O   0  0  0  0  0  0  0  0  0  0  0  0
  -27.4094   -2.6752  -23.7823 O   0  0  0  0  0  0  0  0  0  0  0  0
  -26.4928   -4.3437  -25.4399 O   0  0  0  0  0  0  0  0  0  0  0  0
  -21.3194   -6.0308  -38.9278 O   0  0  0  0  0  0  0  0  0  0  0  0
  -27.1463   -4.0488  -24.1763 S   0  0  0  0  0  0  0  0  0  0  0  0
  -20.3045   -2.9822  -31.8890 H   0  0  0  0  0  0  0  0  0  0  0  0
  -20.8502   -7.2356  -31.4025 H   0  0  0  0  0  0  0  0  0  0  0  0
  -19.3649   -3.3631  -34.1296 H   0  0  0  0  0  0  0  0  0  0  0  0
  -19.9100   -7.6086  -33.6445 H   0  0  0  0  0  0  0  0  0  0  0  0
  -15.9092   -6.3254  -26.4884 H   0  0  0  0  0  0  0  0  0  0  0  0
  -24.1833   -4.3045  -28.6529 H   0  0  0  0  0  0  0  0  0  0  0  0
  -20.0903   -4.3488  -24.4686 H   0  0  0  0  0  0  0  0  0  0  0  0
  -15.8528   -3.5938  -26.7960 H   0  0  0  0  0  0  0  0  0  0  0  0
  -20.7726   -8.4711  -38.5540 H   0  0  0  0  0  0  0  0  0  0  0  0
  -21.5823   -8.7128  -36.9643 H   0  0  0  0  0  0  0  0  0  0  0  0
  -21.1750   -4.7961  -36.7491 H   0  0  0  0  0  0  0  0  0  0  0  0
  -21.8674   -6.0418  -35.6510 H   0  0  0  0  0  0  0  0  0  0  0  0
  -22.8173   -6.7894  -37.7537 H   0  0  0  0  0  0  0  0  0  0  0  0
  -23.5956   -3.6734  -31.6072 H   0  0  0  0  0  0  0  0  0  0  0  0
  -23.1200   -5.3478  -31.9832 H   0  0  0  0  0  0  0  0  0  0  0  0
  -24.4850   -5.0491  -30.9085 H   0  0  0  0  0  0  0  0  0  0  0  0
  -18.6747   -6.1181  -29.2221 H   0  0  0  0  0  0  0  0  0  0  0  0
  -18.6139   -4.6753  -30.2642 H   0  0  0  0  0  0  0  0  0  0  0  0
  -18.3128   -4.5155  -28.5347 H   0  0  0  0  0  0  0  0  0  0  0  0
  -18.9218   -7.4908  -25.2774 H   0  0  0  0  0  0  0  0  0  0  0  0
  -19.7356   -7.2753  -26.8467 H   0  0  0  0  0  0  0  0  0  0  0  0
  -18.1690   -8.0806  -26.7798 H   0  0  0  0  0  0  0  0  0  0  0  0
  -29.3370   -4.4980  -24.9354 H   0  0  0  0  0  0  0  0  0  0  0  0
  -28.5020   -5.9743  -24.3533 H   0  0  0  0  0  0  0  0  0  0  0  0
  -29.1531   -4.7890  -23.1756 H   0  0  0  0  0  0  0  0  0  0  0  0
  -18.7248   -4.7895  -35.8705 H   0  0  0  0  0  0  0  0  0  0  0  0
  -18.0959   -6.3537  -35.3512 H   0  0  0  0  0  0  0  0  0  0  0  0
  -24.8732   -3.1704  -22.5139 H   0  0  0  0  0  0  0  0  0  0  0  0
  -24.3042   -4.7429  -21.9192 H   0  0  0  0  0  0  0  0  0  0  0  0
  -26.8048   -4.6796  -21.9672 H   0  0  0  0  0  0  0  0  0  0  0  0
  -26.1959   -5.8966  -23.1140 H   0  0  0  0  0  0  0  0  0  0  0  0
  -24.4956   -4.8348  -24.7296 H   0  0  0  0  0  0  0  0  0  0  0  0
  -21.5556   -6.6241  -39.6581 H   0  0  0  0  0  0  0  0  0  0  0  0
  1  3  1  0  0  0  0
  1 10  2  0  0  0  0
  2  4  2  0  0  0  0
  2 10  1  0  0  0  0
  3 12  2  0  0  0  0
  4 12  1  0  0  0  0
  5  8  1  0  0  0  0
  5 18  2  0  0  0  0
  6 13  2  0  0  0  0
  6 15  1  0  0  0  0
  7 16  1  0  0  0  0
  7 17  2  0  0  0  0
  8 31  2  0  0  0  0
  9 14  1  0  0  0  0
  9 15  1  0  0  0  0
  9 16  2  0  0  0  0
 10 11  1  0  0  0  0
 11 13  1  0  0  0  0
 11 14  2  0  0  0  0
 12 28  1  0  0  0  0
 13 24  1  0  0  0  0
 14 25  1  0  0  0  0
 15 32  2  0  0  0  0
 16 33  1  0  0  0  0
 17 20  1  0  0  0  0
 17 32  1  0  0  0  0
 18 26  1  0  0  0  0
 18 33  1  0  0  0  0
 19 21  1  0  0  0  0
 19 34  1  0  0  0  0
 19 36  2  0  0  0  0
 20 35  1  0  0  0  0
 20 37  2  0  0  0  0
 21 23  1  0  0  0  0
 22 23  1  0  0  0  0
 22 34  1  0  0  0  0
 23 40  1  0  0  0  0
 27 41  1  0  0  0  0
 28 34  1  0  0  0  0
 29 30  1  0  0  0  0
 29 35  1  0  0  0  0
 30 41  1  0  0  0  0
 31 33  1  0  0  0  0
 38 41  2  0  0  0  0
 39 41  2  0  0  0  0
  1 42  1  0  0  0  0
  2 43  1  0  0  0  0
  3 44  1  0  0  0  0
  4 45  1  0  0  0  0
  5 46  1  0  0  0  0
  6 47  1  0  0  0  0
  7 48  1  0  0  0  0
  8 49  1  0  0  0  0
 21 50  1  0  0  0  0
 21 51  1  0  0  0  0
 22 52  1  0  0  0  0
 22 53  1  0  0  0  0
 23 54  1  0  0  0  0
 24 55  1  0  0  0  0
 24 56  1  0  0  0  0
 24 57  1  0  0  0  0
 25 58  1  0  0  0  0
 25 59  1  0  0  0  0
 25 60  1  0  0  0  0
 26 61  1  0  0  0  0
 26 62  1  0  0  0  0
 26 63  1  0  0  0  0
 27 64  1  0  0  0  0
 27 65  1  0  0  0  0
 27 66  1  0  0  0  0
 28 67  1  0  0  0  0
 28 68  1  0  0  0  0
 29 69  1  0  0  0  0
 29 70  1  0  0  0  0
 30 71  1  0  0  0  0
 30 72  1  0  0  0  0
 35 73  1  0  0  0  0
 40 74  1  0  0  0  0
M  END
> <SMILES>
Cc1cc2nc(cc(c2c(c1-c1ccc(cc1)CN1C[C@@H](O)CC1=O)C)-n1nccc1C)C(=O)NCCS(=O)(=O)C

> <FORMATTED_ID>
H3D-008535

> <MOLFORMULA>
C30H33N5O5S

> <Exact Mass>
575.22

> <XLogP>
2.66

> <TPSA_NOPS>
142.9

> <s_m_source_file>
ligprep_h3d.sdf

> <i_m_source_file_index>
1257

> <i_lp_mmshare_version>
55123

> <i_f3d_flags>
0

> <s_epik_input>
Tz1TKD1PKShbQ0gzXSlbQ0gyXVtDSDJdW05IXUMoPU8pYyhuMSlbY0hdYygtbjJuW2NIXVtjSF1jMltDSDNdKWMoYzEzKWMoW0NIM10pYyhjKFtDSDNdKVtjSF0zKS1jNFtjSF1bY0hdYyhbY0hdW2NIXTQpW0NIMl1ONVtDSDJdW0NAQEhdKFtPSF0pW0NIMl1DNT1P

> <s_epik_cmdline>
J2VwaWtfcHl0aG9uJywgJy1waHQnLCAnMC41JywgJy1waCcsICc3LjUnLCAnLXRuJywgJzgnLCAnLW1hJywgJzUwMCcsICctaW1hZScsICc8aW5maWxlLm1hZT4nLCAnLW9tYWUnLCAnPG91dGZpbGUubWFlPic=

> <r_lp_tautomer_probability>
1

> <r_epik_Ionization_Penalty>
2.21608e-05

> <r_epik_Ionization_Penalty_Charging>
0

> <r_epik_Ionization_Penalty_Neutral>
2.21608e-05

> <r_epik_State_Penalty>
-0

> <r_epik_Charging_Adjusted_Penalty>
0

> <i_epik_Tot_Q>
0

> <i_epik_Tot_abs_Q>
0

> <s_lp_Force_Field>
S-OPLS

> <r_lp_Energy>
30.9874

> <b_lp_Chiralities_Consistent>
1

> <s_lp_Variant>
ligprep_h3d.sdf:1257-1

> <ROCS_ShapeQuery>
_7L13

> <ROCS_TanimotoCombo>
0.679 

> <ROCS_ShapeTanimoto>
0.582 

> <ROCS_ColorTanimoto>
0.097 

> <ROCS_RefTversky>
0.779 

> <ROCS_RefColorTversky>
0.219 

> <ROCS_RefTverskyCombo>
0.998 

> <ROCS_FitTversky>
0.698 

> <ROCS_FitColorTversky>
0.147 

> <ROCS_FitTverskyCombo>
0.845 

> <ROCS_ColorScore>
-2.026

> <ROCS_Overlap>
1301.952

> <ROCS_Rank>
375                 

$$$$
ligprep_h3d.sdf:1588_1585
  -OEChem-08212117123D

 64 68  0     1  0  0  0  0  0999 V2000
  -16.8466   -5.8963  -26.5706 C   0  0  0  0  0  0  0  0  0  0  0  0
  -23.1157   -4.2904  -28.7831 C   0  0  0  0  0  0  0  0  0  0  0  0
  -20.7245   -4.4343  -25.3873 C   0  0  0  0  0  0  0  0  0  0  0  0
  -16.7355   -4.4983  -26.6930 C   0  0  0  0  0  0  0  0  0  0  0  0
  -20.9511   -4.6067  -27.7881 C   0  0  0  0  0  0  0  0  0  0  0  0
  -21.2186   -4.7721  -30.1948 C   0  0  0  0  0  0  0  0  0  0  0  0
  -22.5747   -4.5054  -30.0531 C   0  0  0  0  0  0  0  0  0  0  0  0
  -20.4067   -4.8230  -29.0654 C   0  0  0  0  0  0  0  0  0  0  0  0
  -22.3272   -4.3356  -27.6367 C   0  0  0  0  0  0  0  0  0  0  0  0
  -20.1569   -4.6521  -26.6344 C   0  0  0  0  0  0  0  0  0  0  0  0
  -22.0795   -4.1764  -25.3392 C   0  0  0  0  0  0  0  0  0  0  0  0
  -18.1993   -6.1311  -26.5323 C   0  0  0  0  0  0  0  0  0  0  0  0
  -20.1795   -3.9876  -32.2986 C   0  0  0  0  0  0  0  0  0  0  0  0
  -20.6581   -4.9981  -31.5486 C   0  0  0  0  0  0  0  0  0  0  0  0
  -22.7359   -3.9395  -24.0649 C   0  0  0  0  0  0  0  0  0  0  0  0
  -19.5075   -7.0789  -36.0690 C   0  0  0  0  0  0  0  0  0  0  0  0
  -19.6171   -4.1946  -33.6795 C   0  0  0  0  0  0  0  0  0  0  0  0
  -20.6378   -6.4096  -32.0903 C   0  0  0  0  0  0  0  0  0  0  0  0
  -26.3485   -4.4309  -22.7571 C   0  0  0  0  0  0  0  0  0  0  0  0
  -25.3978   -5.2947  -21.9833 C   0  0  0  0  0  0  0  0  0  0  0  0
  -19.6952   -6.5778  -33.2917 C   0  0  0  0  0  0  0  0  0  0  0  0
  -24.8761   -4.1237  -22.7701 C   0  0  0  0  0  0  0  0  0  0  0  0
  -23.4918   -4.4393  -31.2330 C   0  0  0  0  0  0  0  0  0  0  0  0
  -18.9512   -5.1160  -29.2976 C   0  0  0  0  0  0  0  0  0  0  0  0
  -18.9509   -7.3960  -26.4130 C   0  0  0  0  0  0  0  0  0  0  0  0
  -19.1657   -5.7261  -35.4884 C   0  0  0  0  0  0  0  0  0  0  0  0
  -17.9229   -3.8879  -26.7302 N   0  0  0  0  0  0  0  0  0  0  0  0
  -22.8809   -4.1238  -26.4277 N   0  0  0  0  0  0  0  0  0  0  0  0
  -18.7931   -4.9072  -26.6306 N   0  0  0  0  0  0  0  0  0  0  0  0
  -19.9331   -5.5069  -34.2642 N   0  0  2  0  0  0  0  0  0  0  0  0
  -18.4568   -7.6275  -36.7726 N   0  0  0  0  0  0  0  0  0  0  0  0
  -24.0810   -4.3154  -23.9617 N   0  0  0  0  0  0  0  0  0  0  0  0
  -22.1191   -3.4056  -23.1250 O   0  0  0  0  0  0  0  0  0  0  0  0
  -20.5822   -7.6472  -35.8962 O   0  0  0  0  0  0  0  0  0  0  0  0
  -16.0551   -6.6295  -26.5181 H   0  0  0  0  0  0  0  0  0  0  0  0
  -24.1807   -4.0824  -28.6871 H   0  0  0  0  0  0  0  0  0  0  0  0
  -20.1313   -4.4640  -24.4778 H   0  0  0  0  0  0  0  0  0  0  0  0
  -15.8386   -3.8990  -26.7569 H   0  0  0  0  0  0  0  0  0  0  0  0
  -20.1700   -2.9717  -31.9114 H   0  0  0  0  0  0  0  0  0  0  0  0
  -20.0274   -3.4146  -34.3323 H   0  0  0  0  0  0  0  0  0  0  0  0
  -18.5316   -4.0386  -33.6238 H   0  0  0  0  0  0  0  0  0  0  0  0
  -20.3223   -7.1068  -31.3043 H   0  0  0  0  0  0  0  0  0  0  0  0
  -21.6593   -6.6886  -32.3802 H   0  0  0  0  0  0  0  0  0  0  0  0
  -26.7967   -4.8503  -23.6495 H   0  0  0  0  0  0  0  0  0  0  0  0
  -26.9970   -3.7675  -22.1982 H   0  0  0  0  0  0  0  0  0  0  0  0
  -25.4059   -5.2130  -20.9034 H   0  0  0  0  0  0  0  0  0  0  0  0
  -25.2079   -6.2936  -22.3566 H   0  0  0  0  0  0  0  0  0  0  0  0
  -18.6494   -6.5799  -32.9555 H   0  0  0  0  0  0  0  0  0  0  0  0
  -19.8924   -7.5574  -33.7442 H   0  0  0  0  0  0  0  0  0  0  0  0
  -24.5547   -3.2589  -22.1996 H   0  0  0  0  0  0  0  0  0  0  0  0
  -23.5347   -3.4158  -31.6209 H   0  0  0  0  0  0  0  0  0  0  0  0
  -23.1514   -5.1050  -32.0345 H   0  0  0  0  0  0  0  0  0  0  0  0
  -24.5059   -4.7554  -30.9620 H   0  0  0  0  0  0  0  0  0  0  0  0
  -18.7806   -6.1951  -29.2647 H   0  0  0  0  0  0  0  0  0  0  0  0
  -18.6297   -4.7331  -30.2703 H   0  0  0  0  0  0  0  0  0  0  0  0
  -18.3328   -4.6331  -28.5356 H   0  0  0  0  0  0  0  0  0  0  0  0
  -19.1395   -7.6479  -25.3566 H   0  0  0  0  0  0  0  0  0  0  0  0
  -19.9269   -7.3472  -26.9253 H   0  0  0  0  0  0  0  0  0  0  0  0
  -18.4099   -8.2432  -26.8683 H   0  0  0  0  0  0  0  0  0  0  0  0
  -19.4130   -4.9258  -36.1910 H   0  0  0  0  0  0  0  0  0  0  0  0
  -18.1006   -5.6918  -35.2434 H   0  0  0  0  0  0  0  0  0  0  0  0
  -17.5738   -7.1353  -36.8592 H   0  0  0  0  0  0  0  0  0  0  0  0
  -18.5200   -8.5335  -37.2259 H   0  0  0  0  0  0  0  0  0  0  0  0
  -24.5548   -4.6887  -24.7777 H   0  0  0  0  0  0  0  0  0  0  0  0
  1  4  1  0  0  0  0
  1 12  2  0  0  0  0
  2  7  2  0  0  0  0
  2  9  1  0  0  0  0
  3 10  1  0  0  0  0
  3 11  2  0  0  0  0
  4 27  2  0  0  0  0
  5  8  1  0  0  0  0
  5  9  1  0  0  0  0
  5 10  2  0  0  0  0
  6  7  1  0  0  0  0
  6  8  2  0  0  0  0
  6 14  1  0  0  0  0
  7 23  1  0  0  0  0
  8 24  1  0  0  0  0
  9 28  2  0  0  0  0
 10 29  1  0  0  0  0
 11 15  1  0  0  0  0
 11 28  1  0  0  0  0
 12 25  1  0  0  0  0
 12 29  1  0  0  0  0
 13 14  2  0  0  0  0
 13 17  1  0  0  0  0
 14 18  1  0  0  0  0
 15 32  1  0  0  0  0
 15 33  2  0  0  0  0
 16 26  1  0  0  0  0
 16 31  1  0  0  0  0
 16 34  2  0  0  0  0
 17 30  1  0  0  0  0
 18 21  1  0  0  0  0
 19 20  1  0  0  0  0
 19 22  1  0  0  0  0
 20 22  1  0  0  0  0
 21 30  1  0  0  0  0
 22 32  1  0  0  0  0
 26 30  1  0  0  0  0
 27 29  1  0  0  0  0
  1 35  1  0  0  0  0
  2 36  1  0  0  0  0
  3 37  1  0  0  0  0
  4 38  1  0  0  0  0
 13 39  1  0  0  0  0
 17 40  1  0  0  0  0
 17 41  1  0  0  0  0
 18 42  1  0  0  0  0
 18 43  1  0  0  0  0
 19 44  1  0  0  0  0
 19 45  1  0  0  0  0
 20 46  1  0  0  0  0
 20 47  1  0  0  0  0
 21 48  1  0  0  0  0
 21 49  1  0  0  0  0
 22 50  1  0  0  0  0
 23 51  1  0  0  0  0
 23 52  1  0  0  0  0
 23 53  1  0  0  0  0
 24 54  1  0  0  0  0
 24 55  1  0  0  0  0
 24 56  1  0  0  0  0
 25 57  1  0  0  0  0
 25 58  1  0  0  0  0
 25 59  1  0  0  0  0
 26 60  1  0  0  0  0
 26 61  1  0  0  0  0
 31 62  1  0  0  0  0
 31 63  1  0  0  0  0
 32 64  1  0  0  0  0
M  END
> <SMILES>
Cc1cc2nc(cc(c2c(c1C1=CCN(CC1)CC(=O)N)C)-n1nccc1C)C(=O)NC1CC1

> <FORMATTED_ID>
H3D-014971

> <MOLFORMULA>
C26H30N6O2

> <Exact Mass>
458.24

> <XLogP>
2.53

> <TPSA_NOPS>
106.1

> <s_m_source_file>
ligprep_h3d.sdf

> <i_m_source_file_index>
1588

> <i_lp_mmshare_version>
55123

> <i_f3d_flags>
0

> <s_epik_input>
Tz1DKFtOSDJdKVtDSDJdTihbQ0gyXVtDSDJdMSlbQ0gyXVtDSF09QzFjKGMoW0NIM10pW2NIXTIpYyhbQ0gzXSljKGMyMyljKC1uNG5bY0hdW2NIXWM0W0NIM10pW2NIXWMobjMpQyg9TylbTkhdW0NIXTVbQ0gyXVtDSDJdNQ==

> <s_epik_cmdline>
J2VwaWtfcHl0aG9uJywgJy1waHQnLCAnMC41JywgJy1waCcsICc3LjUnLCAnLXRuJywgJzgnLCAnLW1hJywgJzUwMCcsICctaW1hZScsICc8aW5maWxlLm1hZT4nLCAnLW9tYWUnLCAnPG91dGZpbGUubWFlPic=

> <r_lp_tautomer_probability>
1

> <r_epik_Ionization_Penalty>
0.187182

> <r_epik_Ionization_Penalty_Charging>
0

> <r_epik_Ionization_Penalty_Neutral>
0.187182

> <r_epik_State_Penalty>
0.17675

> <r_epik_Charging_Adjusted_Penalty>
0.17675

> <i_epik_Tot_Q>
0

> <i_epik_Tot_abs_Q>
0

> <s_lp_Force_Field>
S-OPLS

> <r_lp_Energy>
60.724

> <b_lp_Chiralities_Consistent>
1

> <s_lp_Variant>
ligprep_h3d.sdf:1588-1

> <ROCS_ShapeQuery>
_7L13

> <ROCS_TanimotoCombo>
0.777 

> <ROCS_ShapeTanimoto>
0.664 

> <ROCS_ColorTanimoto>
0.113 

> <ROCS_RefTversky>
0.779 

> <ROCS_RefColorTversky>
0.223 

> <ROCS_RefTverskyCombo>
1.002 

> <ROCS_FitTversky>
0.819 

> <ROCS_FitColorTversky>
0.186 

> <ROCS_FitTverskyCombo>
1.005 

> <ROCS_ColorScore>
-2.028

> <ROCS_Overlap>
1289.938

> <ROCS_Rank>
376                 

$$$$
ligprep_h3d.sdf:1232_364
  -OEChem-08212117123D

 71 75  0     1  0  0  0  0  0999 V2000
  -19.6518   -4.5303  -32.2834 C   0  0  0  0  0  0  0  0  0  0  0  0
  -20.2822   -6.8267  -31.8757 C   0  0  0  0  0  0  0  0  0  0  0  0
  -19.0540   -4.9079  -33.4857 C   0  0  0  0  0  0  0  0  0  0  0  0
  -19.6844   -7.2043  -33.0781 C   0  0  0  0  0  0  0  0  0  0  0  0
  -16.8662   -6.1310  -26.1915 C   0  0  0  0  0  0  0  0  0  0  0  0
  -22.8358   -4.3462  -29.0130 C   0  0  0  0  0  0  0  0  0  0  0  0
  -20.6968   -4.3003  -25.4504 C   0  0  0  0  0  0  0  0  0  0  0  0
  -16.6443   -4.7636  -26.4416 C   0  0  0  0  0  0  0  0  0  0  0  0
  -20.7728   -4.7028  -27.8330 C   0  0  0  0  0  0  0  0  0  0  0  0
  -20.2659   -5.4897  -31.4783 C   0  0  0  0  0  0  0  0  0  0  0  0
  -20.8886   -5.0962  -30.2254 C   0  0  0  0  0  0  0  0  0  0  0  0
  -19.0703   -6.2448  -33.8831 C   0  0  0  0  0  0  0  0  0  0  0  0
  -22.2277   -4.7262  -30.2120 C   0  0  0  0  0  0  0  0  0  0  0  0
  -20.1609   -5.0851  -29.0389 C   0  0  0  0  0  0  0  0  0  0  0  0
  -22.1321   -4.3261  -27.8120 C   0  0  0  0  0  0  0  0  0  0  0  0
  -20.0639   -4.6826  -26.6243 C   0  0  0  0  0  0  0  0  0  0  0  0
  -22.0291   -3.9487  -25.5290 C   0  0  0  0  0  0  0  0  0  0  0  0
  -18.2320   -6.2702  -26.2317 C   0  0  0  0  0  0  0  0  0  0  0  0
  -20.3696   -8.6233  -36.8838 C   0  0  0  0  0  0  0  0  0  0  0  0
  -22.7518   -3.5401  -24.3367 C   0  0  0  0  0  0  0  0  0  0  0  0
  -18.7967   -7.1478  -37.6157 C   0  0  0  0  0  0  0  0  0  0  0  0
  -19.4008   -6.5907  -36.3413 C   0  0  2  0  0  0  0  0  0  0  0  0
  -23.0552   -4.7191  -31.4581 C   0  0  0  0  0  0  0  0  0  0  0  0
  -18.7184   -5.4974  -29.1309 C   0  0  0  0  0  0  0  0  0  0  0  0
  -19.0812   -7.4632  -26.0457 C   0  0  0  0  0  0  0  0  0  0  0  0
  -27.0920   -6.0151  -22.0657 C   0  0  0  0  0  0  0  0  0  0  0  0
  -18.4309   -6.6486  -35.1685 C   0  0  0  0  0  0  0  0  0  0  0  0
  -24.9453   -2.7507  -23.4114 C   0  0  0  0  0  0  0  0  0  0  0  0
  -26.1378   -3.6638  -23.2010 C   0  0  0  0  0  0  0  0  0  0  0  0
  -17.7782   -4.0826  -26.6271 N   0  0  0  0  0  0  0  0  0  0  0  0
  -22.7489   -3.9546  -26.6743 N   0  0  0  0  0  0  0  0  0  0  0  0
  -18.7259   -5.0261  -26.4936 N   0  0  0  0  0  0  0  0  0  0  0  0
  -20.5066   -7.4745  -36.1365 N   0  0  0  0  0  0  0  0  0  0  0  0
  -24.1005   -3.1981  -24.4954 N   0  0  0  0  0  0  0  0  0  0  0  0
  -21.0924   -9.6091  -36.8538 O   0  0  0  0  0  0  0  0  0  0  0  0
  -22.1748   -3.4828  -23.2355 O   0  0  0  0  0  0  0  0  0  0  0  0
  -25.4828   -6.0194  -24.1255 O   0  0  0  0  0  0  0  0  0  0  0  0
  -24.5851   -5.2991  -21.8790 O   0  0  0  0  0  0  0  0  0  0  0  0
  -19.2648   -8.5066  -37.6895 O   0  0  0  0  0  0  0  0  0  0  0  0
  -25.6569   -5.3281  -22.8595 S   0  0  0  0  0  0  0  0  0  0  0  0
  -19.6302   -3.4842  -31.9871 H   0  0  0  0  0  0  0  0  0  0  0  0
  -20.7575   -7.5861  -31.2593 H   0  0  0  0  0  0  0  0  0  0  0  0
  -18.5769   -4.1539  -34.1061 H   0  0  0  0  0  0  0  0  0  0  0  0
  -19.7023   -8.2482  -33.3802 H   0  0  0  0  0  0  0  0  0  0  0  0
  -16.1363   -6.9060  -26.0084 H   0  0  0  0  0  0  0  0  0  0  0  0
  -23.8866   -4.0585  -29.0174 H   0  0  0  0  0  0  0  0  0  0  0  0
  -20.1705   -4.2759  -24.5001 H   0  0  0  0  0  0  0  0  0  0  0  0
  -15.7034   -4.2350  -26.4966 H   0  0  0  0  0  0  0  0  0  0  0  0
  -19.1425   -6.6050  -38.5011 H   0  0  0  0  0  0  0  0  0  0  0  0
  -17.7011   -7.1649  -37.6100 H   0  0  0  0  0  0  0  0  0  0  0  0
  -19.7862   -5.5996  -36.4808 H   0  0  0  0  0  0  0  0  0  0  0  0
  -22.9949   -3.7402  -31.9458 H   0  0  0  0  0  0  0  0  0  0  0  0
  -22.7122   -5.4849  -32.1633 H   0  0  0  0  0  0  0  0  0  0  0  0
  -24.1062   -4.9363  -31.2343 H   0  0  0  0  0  0  0  0  0  0  0  0
  -18.6313   -6.5763  -28.9799 H   0  0  0  0  0  0  0  0  0  0  0  0
  -18.3039   -5.2389  -30.1093 H   0  0  0  0  0  0  0  0  0  0  0  0
  -18.1197   -4.9812  -28.3752 H   0  0  0  0  0  0  0  0  0  0  0  0
  -19.3590   -7.5919  -24.9868 H   0  0  0  0  0  0  0  0  0  0  0  0
  -20.0140   -7.4026  -26.6319 H   0  0  0  0  0  0  0  0  0  0  0  0
  -18.5745   -8.3869  -26.3740 H   0  0  0  0  0  0  0  0  0  0  0  0
  -26.8820   -7.0563  -21.8158 H   0  0  0  0  0  0  0  0  0  0  0  0
  -27.2949   -5.4384  -21.1620 H   0  0  0  0  0  0  0  0  0  0  0  0
  -27.9327   -5.9501  -22.7580 H   0  0  0  0  0  0  0  0  0  0  0  0
  -17.5646   -6.0034  -35.3860 H   0  0  0  0  0  0  0  0  0  0  0  0
  -18.0216   -7.6687  -35.0901 H   0  0  0  0  0  0  0  0  0  0  0  0
  -25.2583   -1.7267  -23.6377 H   0  0  0  0  0  0  0  0  0  0  0  0
  -24.3234   -2.7304  -22.5113 H   0  0  0  0  0  0  0  0  0  0  0  0
  -26.7522   -3.7025  -24.1055 H   0  0  0  0  0  0  0  0  0  0  0  0
  -26.7609   -3.3324  -22.3648 H   0  0  0  0  0  0  0  0  0  0  0  0
  -21.2915   -7.2792  -35.5191 H   0  0  0  0  0  0  0  0  0  0  0  0
  -24.5061   -3.2013  -25.4255 H   0  0  0  0  0  0  0  0  0  0  0  0
  1  3  1  0  0  0  0
  1 10  2  0  0  0  0
  2  4  2  0  0  0  0
  2 10  1  0  0  0  0
  3 12  2  0  0  0  0
  4 12  1  0  0  0  0
  5  8  1  0  0  0  0
  5 18  2  0  0  0  0
  6 13  2  0  0  0  0
  6 15  1  0  0  0  0
  7 16  1  0  0  0  0
  7 17  2  0  0  0  0
  8 30  2  0  0  0  0
  9 14  1  0  0  0  0
  9 15  1  0  0  0  0
  9 16  2  0  0  0  0
 10 11  1  0  0  0  0
 11 13  1  0  0  0  0
 11 14  2  0  0  0  0
 12 27  1  0  0  0  0
 13 23  1  0  0  0  0
 14 24  1  0  0  0  0
 15 31  2  0  0  0  0
 16 32  1  0  0  0  0
 17 20  1  0  0  0  0
 17 31  1  0  0  0  0
 18 25  1  0  0  0  0
 18 32  1  0  0  0  0
 19 33  1  0  0  0  0
 19 35  2  0  0  0  0
 19 39  1  0  0  0  0
 20 34  1  0  0  0  0
 20 36  2  0  0  0  0
 21 22  1  0  0  0  0
 21 39  1  0  0  0  0
 22 27  1  0  0  0  0
 22 33  1  0  0  0  0
 26 40  1  0  0  0  0
 28 29  1  0  0  0  0
 28 34  1  0  0  0  0
 29 40  1  0  0  0  0
 30 32  1  0  0  0  0
 37 40  2  0  0  0  0
 38 40  2  0  0  0  0
  1 41  1  0  0  0  0
  2 42  1  0  0  0  0
  3 43  1  0  0  0  0
  4 44  1  0  0  0  0
  5 45  1  0  0  0  0
  6 46  1  0  0  0  0
  7 47  1  0  0  0  0
  8 48  1  0  0  0  0
 21 49  1  0  0  0  0
 21 50  1  0  0  0  0
 22 51  1  0  0  0  0
 23 52  1  0  0  0  0
 23 53  1  0  0  0  0
 23 54  1  0  0  0  0
 24 55  1  0  0  0  0
 24 56  1  0  0  0  0
 24 57  1  0  0  0  0
 25 58  1  0  0  0  0
 25 59  1  0  0  0  0
 25 60  1  0  0  0  0
 26 61  1  0  0  0  0
 26 62  1  0  0  0  0
 26 63  1  0  0  0  0
 27 64  1  0  0  0  0
 27 65  1  0  0  0  0
 28 66  1  0  0  0  0
 28 67  1  0  0  0  0
 29 68  1  0  0  0  0
 29 69  1  0  0  0  0
 33 70  1  0  0  0  0
 34 71  1  0  0  0  0
M  END
> <SMILES>
Cc1cc2nc(cc(c2c(c1-c1ccc(cc1)C[C@H]1COC(=O)N1)C)-n1nccc1C)C(=O)NCCS(=O)(=O)C

> <FORMATTED_ID>
H3D-008424

> <MOLFORMULA>
C29H31N5O5S

> <Exact Mass>
561.2

> <XLogP>
2.84

> <TPSA_NOPS>
140.7

> <s_m_source_file>
ligprep_h3d.sdf

> <i_m_source_file_index>
1232

> <i_lp_mmshare_version>
55123

> <i_f3d_flags>
0

> <s_epik_input>
Tz1DKFtOSF0xKU9bQ0gyXVtDQEBIXTFbQ0gyXWMoW2NIXVtjSF0yKVtjSF1bY0hdYzItYyhjKFtDSDNdKVtjSF0zKWMoW0NIM10pYyhjMzQpYygtbjVuW2NIXVtjSF1jNVtDSDNdKVtjSF1jKG40KUMoPU8pW05IXVtDSDJdW0NIMl1TKD1PKSg9TylbQ0gzXQ==

> <s_epik_cmdline>
J2VwaWtfcHl0aG9uJywgJy1waHQnLCAnMC41JywgJy1waCcsICc3LjUnLCAnLXRuJywgJzgnLCAnLW1hJywgJzUwMCcsICctaW1hZScsICc8aW5maWxlLm1hZT4nLCAnLW9tYWUnLCAnPG91dGZpbGUubWFlPic=

> <r_lp_tautomer_probability>
1

> <r_epik_Ionization_Penalty>
2.32844e-05

> <r_epik_Ionization_Penalty_Charging>
0

> <r_epik_Ionization_Penalty_Neutral>
2.32844e-05

> <r_epik_State_Penalty>
-0

> <r_epik_Charging_Adjusted_Penalty>
0

> <i_epik_Tot_Q>
0

> <i_epik_Tot_abs_Q>
0

> <s_epik_Chemistry_Notes>
This compound has an ester and may undergo hydrolysis at high or low pH.

> <s_lp_Force_Field>
S-OPLS

> <r_lp_Energy>
26.5815

> <b_lp_Chiralities_Consistent>
1

> <s_lp_Variant>
ligprep_h3d.sdf:1232-1

> <ROCS_ShapeQuery>
_7L13

> <ROCS_TanimotoCombo>
0.688 

> <ROCS_ShapeTanimoto>
0.592 

> <ROCS_ColorTanimoto>
0.096 

> <ROCS_RefTversky>
0.779 

> <ROCS_RefColorTversky>
0.209 

> <ROCS_RefTverskyCombo>
0.988 

> <ROCS_FitTversky>
0.711 

> <ROCS_FitColorTversky>
0.150 

> <ROCS_FitTverskyCombo>
0.861 

> <ROCS_ColorScore>
-1.925

> <ROCS_Overlap>
1300.303

> <ROCS_Rank>
377                 

$$$$
ligprep_h3d.sdf:5172_1172
  -OEChem-08212117123D

 61 65  0     1  0  0  0  0  0999 V2000
  -25.1623   -4.2656  -22.7402 C   0  0  0  0  0  0  0  0  0  0  0  0
  -23.8520   -3.8672  -23.0048 C   0  0  0  0  0  0  0  0  0  0  0  0
  -25.8870   -4.9648  -23.7054 C   0  0  0  0  0  0  0  0  0  0  0  0
  -19.6776   -3.6082  -34.4595 C   0  0  0  0  0  0  0  0  0  0  0  0
  -20.4065   -3.3108  -33.3080 C   0  0  0  0  0  0  0  0  0  0  0  0
  -23.2665   -4.1679  -24.2346 C   0  0  0  0  0  0  0  0  0  0  0  0
  -25.3015   -5.2654  -24.9352 C   0  0  0  0  0  0  0  0  0  0  0  0
  -19.7773   -4.8722  -35.0410 C   0  0  0  0  0  0  0  0  0  0  0  0
  -21.3346   -5.5415  -33.3195 C   0  0  0  0  0  0  0  0  0  0  0  0
  -16.8632   -5.7853  -25.4844 C   0  0  0  0  0  0  0  0  0  0  0  0
  -17.4920   -4.7528  -23.6477 C   0  0  0  0  0  0  0  0  0  0  0  0
  -17.6082   -4.6871  -25.0147 C   0  0  0  0  0  0  0  0  0  0  0  0
  -21.2350   -4.2775  -32.7380 C   0  0  0  0  0  0  0  0  0  0  0  0
  -23.9912   -4.8670  -25.1999 C   0  0  0  0  0  0  0  0  0  0  0  0
  -20.6057   -5.8388  -34.4710 C   0  0  0  0  0  0  0  0  0  0  0  0
  -18.3600   -3.6693  -25.7723 C   0  0  0  0  0  0  0  0  0  0  0  0
  -19.6945   -3.3086  -27.9253 C   0  0  0  0  0  0  0  0  0  0  0  0
  -19.0301   -5.3257  -27.6677 C   0  0  0  0  0  0  0  0  0  0  0  0
  -22.4980   -4.5755  -29.1038 C   0  0  0  0  0  0  0  0  0  0  0  0
  -20.2165   -4.8236  -29.9414 C   0  0  0  0  0  0  0  0  0  0  0  0
  -21.6290   -5.1517  -27.9953 C   0  0  1  0  0  0  0  0  0  0  0  0
  -20.2270   -4.6869  -28.4156 C   0  0  0  0  0  0  0  0  0  0  0  0
  -22.0185   -3.9577  -31.4992 C   0  0  0  0  0  0  0  0  0  0  0  0
  -22.0822   -4.7242  -26.6109 C   0  0  0  0  0  0  0  0  0  0  0  0
  -19.5749   -7.5820  -35.7403 C   0  0  0  0  0  0  0  0  0  0  0  0
  -16.3141   -6.4965  -24.4961 N   0  0  0  0  0  0  0  0  0  0  0  0
  -16.7145   -5.8437  -23.3917 N   0  0  0  0  0  0  0  0  0  0  0  0
  -18.8956   -4.0582  -26.9721 N   0  0  0  0  0  0  0  0  0  0  0  0
  -21.6820   -4.8480  -30.3474 N   0  3  2  0  0  0  0  0  0  0  0  0
  -18.4818   -2.5485  -25.2845 O   0  0  0  0  0  0  0  0  0  0  0  0
  -23.4164   -5.1615  -26.4102 O   0  0  0  0  0  0  0  0  0  0  0  0
  -20.7033   -7.0720  -35.0389 O   0  0  0  0  0  0  0  0  0  0  0  0
  -18.4238   -7.1061  -35.2200 F   0  0  0  0  0  0  0  0  0  0  0  0
  -19.6460   -7.1812  -37.0300 F   0  0  0  0  0  0  0  0  0  0  0  0
  -19.5623   -8.9318  -35.7247 F   0  0  0  0  0  0  0  0  0  0  0  0
  -25.6183   -4.0322  -21.7826 H   0  0  0  0  0  0  0  0  0  0  0  0
  -23.2875   -3.3227  -22.2534 H   0  0  0  0  0  0  0  0  0  0  0  0
  -26.9073   -5.2748  -23.4986 H   0  0  0  0  0  0  0  0  0  0  0  0
  -19.0331   -2.8554  -34.9035 H   0  0  0  0  0  0  0  0  0  0  0  0
  -20.3221   -2.3235  -32.8618 H   0  0  0  0  0  0  0  0  0  0  0  0
  -22.2459   -3.8534  -24.4350 H   0  0  0  0  0  0  0  0  0  0  0  0
  -25.8715   -5.8086  -25.6841 H   0  0  0  0  0  0  0  0  0  0  0  0
  -19.2069   -5.0975  -35.9378 H   0  0  0  0  0  0  0  0  0  0  0  0
  -21.9795   -6.2972  -32.8771 H   0  0  0  0  0  0  0  0  0  0  0  0
  -16.6951   -6.1002  -26.5047 H   0  0  0  0  0  0  0  0  0  0  0  0
  -17.8827   -4.1380  -22.8490 H   0  0  0  0  0  0  0  0  0  0  0  0
  -19.0656   -2.7497  -28.6261 H   0  0  0  0  0  0  0  0  0  0  0  0
  -20.4175   -2.6288  -27.4709 H   0  0  0  0  0  0  0  0  0  0  0  0
  -19.2743   -6.1713  -27.0195 H   0  0  0  0  0  0  0  0  0  0  0  0
  -18.1522   -5.5604  -28.2777 H   0  0  0  0  0  0  0  0  0  0  0  0
  -23.4670   -5.0714  -29.2094 H   0  0  0  0  0  0  0  0  0  0  0  0
  -22.6222   -3.4903  -29.0162 H   0  0  0  0  0  0  0  0  0  0  0  0
  -19.7175   -3.9956  -30.4541 H   0  0  0  0  0  0  0  0  0  0  0  0
  -19.7945   -5.7783  -30.2715 H   0  0  0  0  0  0  0  0  0  0  0  0
  -21.6707   -6.2489  -28.0467 H   0  0  0  0  0  0  0  0  0  0  0  0
  -21.8328   -2.9305  -31.1674 H   0  0  0  0  0  0  0  0  0  0  0  0
  -23.0948   -4.0625  -31.6738 H   0  0  0  0  0  0  0  0  0  0  0  0
  -22.0473   -3.6360  -26.5194 H   0  0  0  0  0  0  0  0  0  0  0  0
  -21.4426   -5.1724  -25.8468 H   0  0  0  0  0  0  0  0  0  0  0  0
  -16.4203   -6.1994  -22.4907 H   0  0  0  0  0  0  0  0  0  0  0  0
  -21.8952   -5.8124  -30.6376 H   0  0  0  0  0  0  0  0  0  0  0  0
  1  2  2  0  0  0  0
  1  3  1  0  0  0  0
  2  6  1  0  0  0  0
  3  7  2  0  0  0  0
  4  5  2  0  0  0  0
  4  8  1  0  0  0  0
  5 13  1  0  0  0  0
  6 14  2  0  0  0  0
  7 14  1  0  0  0  0
  8 15  2  0  0  0  0
  9 13  2  0  0  0  0
  9 15  1  0  0  0  0
 10 12  1  0  0  0  0
 10 26  2  0  0  0  0
 11 12  2  0  0  0  0
 11 27  1  0  0  0  0
 12 16  1  0  0  0  0
 13 23  1  0  0  0  0
 14 31  1  0  0  0  0
 15 32  1  0  0  0  0
 16 28  1  0  0  0  0
 16 30  2  0  0  0  0
 17 22  1  0  0  0  0
 17 28  1  0  0  0  0
 18 22  1  0  0  0  0
 18 28  1  0  0  0  0
 19 21  1  0  0  0  0
 19 29  1  0  0  0  0
 20 22  1  0  0  0  0
 20 29  1  0  0  0  0
 21 22  1  0  0  0  0
 21 24  1  0  0  0  0
 23 29  1  0  0  0  0
 24 31  1  0  0  0  0
 25 32  1  0  0  0  0
 25 33  1  0  0  0  0
 25 34  1  0  0  0  0
 25 35  1  0  0  0  0
 26 27  1  0  0  0  0
  1 36  1  0  0  0  0
  2 37  1  0  0  0  0
  3 38  1  0  0  0  0
  4 39  1  0  0  0  0
  5 40  1  0  0  0  0
  6 41  1  0  0  0  0
  7 42  1  0  0  0  0
  8 43  1  0  0  0  0
  9 44  1  0  0  0  0
 10 45  1  0  0  0  0
 11 46  1  0  0  0  0
 17 47  1  0  0  0  0
 17 48  1  0  0  0  0
 18 49  1  0  0  0  0
 18 50  1  0  0  0  0
 19 51  1  0  0  0  0
 19 52  1  0  0  0  0
 20 53  1  0  0  0  0
 20 54  1  0  0  0  0
 21 55  1  0  0  0  0
 23 56  1  0  0  0  0
 23 57  1  0  0  0  0
 24 58  1  0  0  0  0
 24 59  1  0  0  0  0
 27 60  1  0  0  0  0
 29 61  1  0  0  0  0
M  CHG  1  29   1
M  END
> <SMILES>
FC(F)(F)Oc1cccc(c1)CN1CC(COc2ccccc2)C2(C1)CN(C2)C(=O)c1cn[nH]c1

> <FORMATTED_ID>
H3D-013989

> <MOLFORMULA>
C25H25F3N4O3

> <Exact Mass>
486.19

> <XLogP>
5.15

> <TPSA_NOPS>
70.7

> <s_m_source_file>
ligprep_h3d.sdf

> <i_m_source_file_index>
5172

> <i_lp_mmshare_version>
55123

> <i_f3d_flags>
0

> <s_epik_input>
RkMoRikoRilPYzFbY0hdW2NIXVtjSF1jKFtjSF0xKVtDSDJdTihbQ0gyXTIpW0NIMl1bQ0BIXShbQ0gyXU9jM1tjSF1bY0hdW2NIXVtjSF1bY0hdMylDMjRbQ0gyXU4oW0NIMl00KUMoPU8pQzU9W0NIXU49TltDSDJdNQ==

> <s_epik_cmdline>
J2VwaWtfcHl0aG9uJywgJy1waHQnLCAnMC41JywgJy1waCcsICc3LjUnLCAnLXRuJywgJzgnLCAnLW1hJywgJzUwMCcsICctaW1hZScsICc8aW5maWxlLm1hZT4nLCAnLW9tYWUnLCAnPG91dGZpbGUubWFlPic=

> <r_lp_tautomer_probability>
0.5

> <r_epik_Ionization_Penalty>
0.0701224

> <r_epik_Ionization_Penalty_Charging>
0.0701193

> <r_epik_Ionization_Penalty_Neutral>
3.1608e-06

> <r_epik_State_Penalty>
0.0614661

> <r_epik_Charging_Adjusted_Penalty>
0.131585

> <i_epik_Tot_Q>
1

> <i_epik_Tot_abs_Q>
1

> <s_lp_Force_Field>
S-OPLS

> <r_lp_Energy>
26.864

> <b_lp_Chiralities_Consistent>
1

> <s_lp_Variant>
ligprep_h3d.sdf:5172-1

> <ROCS_ShapeQuery>
_7L13

> <ROCS_TanimotoCombo>
0.701 

> <ROCS_ShapeTanimoto>
0.650 

> <ROCS_ColorTanimoto>
0.051 

> <ROCS_RefTversky>
0.779 

> <ROCS_RefColorTversky>
0.111 

> <ROCS_RefTverskyCombo>
0.890 

> <ROCS_FitTversky>
0.797 

> <ROCS_FitColorTversky>
0.086 

> <ROCS_FitTverskyCombo>
0.883 

> <ROCS_ColorScore>
-1.019

> <ROCS_Overlap>
1291.725

> <ROCS_Rank>
378                 

$$$$
ligprep_h3d.sdf:1322_444
  -OEChem-08212117123D

 66 70  0     1  0  0  0  0  0999 V2000
  -19.9810   -3.8106  -31.9637 C   0  0  0  0  0  0  0  0  0  0  0  0
  -20.2900   -6.1996  -31.7791 C   0  0  0  0  0  0  0  0  0  0  0  0
  -19.3567   -3.9867  -33.1985 C   0  0  0  0  0  0  0  0  0  0  0  0
  -19.6657   -6.3758  -33.0140 C   0  0  0  0  0  0  0  0  0  0  0  0
  -16.9123   -5.6023  -26.0623 C   0  0  0  0  0  0  0  0  0  0  0  0
  -23.1098   -4.3758  -28.6828 C   0  0  0  0  0  0  0  0  0  0  0  0
  -20.9422   -4.3876  -25.1371 C   0  0  0  0  0  0  0  0  0  0  0  0
  -16.8801   -4.1995  -26.1767 C   0  0  0  0  0  0  0  0  0  0  0  0
  -20.9997   -4.5628  -27.5477 C   0  0  0  0  0  0  0  0  0  0  0  0
  -20.4476   -4.9171  -31.2539 C   0  0  0  0  0  0  0  0  0  0  0  0
  -21.0981   -4.7335  -29.9669 C   0  0  0  0  0  0  0  0  0  0  0  0
  -19.1991   -5.2693  -33.7237 C   0  0  0  0  0  0  0  0  0  0  0  0
  -22.4744   -4.5514  -29.9146 C   0  0  0  0  0  0  0  0  0  0  0  0
  -20.3604   -4.7394  -28.7866 C   0  0  0  0  0  0  0  0  0  0  0  0
  -22.3969   -4.3776  -27.4870 C   0  0  0  0  0  0  0  0  0  0  0  0
  -20.2816   -4.5645  -26.3443 C   0  0  0  0  0  0  0  0  0  0  0  0
  -18.2475   -5.9203  -26.1135 C   0  0  0  0  0  0  0  0  0  0  0  0
  -22.3107   -4.2138  -25.1781 C   0  0  0  0  0  0  0  0  0  0  0  0
  -19.5279   -7.4841  -36.1751 C   0  0  0  0  0  0  0  0  0  0  0  0
  -21.1674   -6.3534  -37.4781 C   0  0  0  0  0  0  0  0  0  0  0  0
  -20.1458   -5.3494  -36.9819 C   0  0  0  0  0  0  0  0  0  0  0  0
  -20.4359   -7.6873  -37.3732 C   0  0  2  0  0  0  0  0  0  0  0  0
  -23.3143   -4.5354  -31.1522 C   0  0  0  0  0  0  0  0  0  0  0  0
  -18.8772   -4.9415  -28.9224 C   0  0  0  0  0  0  0  0  0  0  0  0
  -18.9257   -7.2296  -26.0446 C   0  0  0  0  0  0  0  0  0  0  0  0
  -18.5314   -5.4576  -35.0438 C   0  0  0  0  0  0  0  0  0  0  0  0
  -24.9152   -4.2412  -22.5901 C   0  0  0  0  0  0  0  0  0  0  0  0
  -24.3375   -4.5020  -23.9678 C   0  0  0  0  0  0  0  0  0  0  0  0
  -18.0980   -3.6634  -26.2920 N   0  0  0  0  0  0  0  0  0  0  0  0
  -23.0407   -4.2056  -26.3170 N   0  0  0  0  0  0  0  0  0  0  0  0
  -18.9081   -4.7349  -26.2505 N   0  0  0  0  0  0  0  0  0  0  0  0
  -19.3927   -6.1063  -36.0082 N   0  0  0  0  0  0  0  0  0  0  0  0
  -19.0193   -8.3798  -35.5183 O   0  0  0  0  0  0  0  0  0  0  0  0
  -21.3388   -8.7464  -37.1845 O   0  0  0  0  0  0  0  0  0  0  0  0
  -26.2652   -4.6884  -22.5606 O   0  0  0  0  0  0  0  0  0  0  0  0
  -22.9938   -4.0361  -24.0035 O   0  0  0  0  0  0  0  0  0  0  0  0
  -20.0958   -2.8045  -31.5673 H   0  0  0  0  0  0  0  0  0  0  0  0
  -20.6489   -7.0720  -31.2382 H   0  0  0  0  0  0  0  0  0  0  0  0
  -18.9953   -3.1191  -33.7440 H   0  0  0  0  0  0  0  0  0  0  0  0
  -19.5476   -7.3787  -33.4159 H   0  0  0  0  0  0  0  0  0  0  0  0
  -16.0822   -6.2854  -25.9578 H   0  0  0  0  0  0  0  0  0  0  0  0
  -24.1896   -4.2341  -28.6569 H   0  0  0  0  0  0  0  0  0  0  0  0
  -20.4129   -4.3845  -24.1888 H   0  0  0  0  0  0  0  0  0  0  0  0
  -16.0197   -3.5458  -26.1810 H   0  0  0  0  0  0  0  0  0  0  0  0
  -22.0607   -6.3487  -36.8408 H   0  0  0  0  0  0  0  0  0  0  0  0
  -21.4947   -6.1459  -38.5016 H   0  0  0  0  0  0  0  0  0  0  0  0
  -19.4638   -5.0291  -37.7755 H   0  0  0  0  0  0  0  0  0  0  0  0
  -20.6163   -4.4797  -36.5156 H   0  0  0  0  0  0  0  0  0  0  0  0
  -19.8196   -7.8714  -38.2602 H   0  0  0  0  0  0  0  0  0  0  0  0
  -23.3940   -3.5145  -31.5412 H   0  0  0  0  0  0  0  0  0  0  0  0
  -22.8821   -5.1753  -31.9301 H   0  0  0  0  0  0  0  0  0  0  0  0
  -24.3229   -4.9138  -30.9488 H   0  0  0  0  0  0  0  0  0  0  0  0
  -18.6433   -6.0081  -28.8788 H   0  0  0  0  0  0  0  0  0  0  0  0
  -18.5168   -4.5351  -29.8716 H   0  0  0  0  0  0  0  0  0  0  0  0
  -18.3415   -4.4249  -28.1210 H   0  0  0  0  0  0  0  0  0  0  0  0
  -19.1676   -7.4973  -25.0030 H   0  0  0  0  0  0  0  0  0  0  0  0
  -19.8669   -7.2388  -26.6202 H   0  0  0  0  0  0  0  0  0  0  0  0
  -18.3045   -8.0398  -26.4633 H   0  0  0  0  0  0  0  0  0  0  0  0
  -18.2228   -4.4939  -35.4728 H   0  0  0  0  0  0  0  0  0  0  0  0
  -17.6233   -6.0693  -34.9525 H   0  0  0  0  0  0  0  0  0  0  0  0
  -24.9049   -3.1727  -22.3539 H   0  0  0  0  0  0  0  0  0  0  0  0
  -24.3549   -4.7925  -21.8294 H   0  0  0  0  0  0  0  0  0  0  0  0
  -24.9030   -3.9710  -24.7399 H   0  0  0  0  0  0  0  0  0  0  0  0
  -24.3343   -5.5742  -24.1850 H   0  0  0  0  0  0  0  0  0  0  0  0
  -21.8858   -8.8172  -37.9896 H   0  0  0  0  0  0  0  0  0  0  0  0
  -26.6000   -4.5061  -21.6681 H   0  0  0  0  0  0  0  0  0  0  0  0
  1  3  1  0  0  0  0
  1 10  2  0  0  0  0
  2  4  2  0  0  0  0
  2 10  1  0  0  0  0
  3 12  2  0  0  0  0
  4 12  1  0  0  0  0
  5  8  1  0  0  0  0
  5 17  2  0  0  0  0
  6 13  2  0  0  0  0
  6 15  1  0  0  0  0
  7 16  1  0  0  0  0
  7 18  2  0  0  0  0
  8 29  2  0  0  0  0
  9 14  1  0  0  0  0
  9 15  1  0  0  0  0
  9 16  2  0  0  0  0
 10 11  1  0  0  0  0
 11 13  1  0  0  0  0
 11 14  2  0  0  0  0
 12 26  1  0  0  0  0
 13 23  1  0  0  0  0
 14 24  1  0  0  0  0
 15 30  2  0  0  0  0
 16 31  1  0  0  0  0
 17 25  1  0  0  0  0
 17 31  1  0  0  0  0
 18 30  1  0  0  0  0
 18 36  1  0  0  0  0
 19 22  1  0  0  0  0
 19 32  1  0  0  0  0
 19 33  2  0  0  0  0
 20 21  1  0  0  0  0
 20 22  1  0  0  0  0
 21 32  1  0  0  0  0
 22 34  1  0  0  0  0
 26 32  1  0  0  0  0
 27 28  1  0  0  0  0
 27 35  1  0  0  0  0
 28 36  1  0  0  0  0
 29 31  1  0  0  0  0
  1 37  1  0  0  0  0
  2 38  1  0  0  0  0
  3 39  1  0  0  0  0
  4 40  1  0  0  0  0
  5 41  1  0  0  0  0
  6 42  1  0  0  0  0
  7 43  1  0  0  0  0
  8 44  1  0  0  0  0
 20 45  1  0  0  0  0
 20 46  1  0  0  0  0
 21 47  1  0  0  0  0
 21 48  1  0  0  0  0
 22 49  1  0  0  0  0
 23 50  1  0  0  0  0
 23 51  1  0  0  0  0
 23 52  1  0  0  0  0
 24 53  1  0  0  0  0
 24 54  1  0  0  0  0
 24 55  1  0  0  0  0
 25 56  1  0  0  0  0
 25 57  1  0  0  0  0
 25 58  1  0  0  0  0
 26 59  1  0  0  0  0
 26 60  1  0  0  0  0
 27 61  1  0  0  0  0
 27 62  1  0  0  0  0
 28 63  1  0  0  0  0
 28 64  1  0  0  0  0
 34 65  1  0  0  0  0
 35 66  1  0  0  0  0
M  END
> <SMILES>
Cc1cc2nc(cc(c2c(c1-c1ccc(cc1)CN1CC[C@H](O)C1=O)C)-n1nccc1C)OCCO

> <FORMATTED_ID>
H3D-008984

> <MOLFORMULA>
C28H30N4O4

> <Exact Mass>
486.23

> <XLogP>
3.8

> <TPSA_NOPS>
100.7

> <s_m_source_file>
ligprep_h3d.sdf

> <i_m_source_file_index>
1322

> <i_lp_mmshare_version>
55123

> <i_f3d_flags>
0

> <s_epik_input>
W0NIM11jMVtjSF1bY0hdbm4xLWMoW2NIXWMobjIpT1tDSDJdW0NIMl1bT0hdKWMoYzIzKWMoW0NIM10pYyhjKFtDSDNdKVtjSF0zKS1jNFtjSF1bY0hdYyhbY0hdW2NIXTQpW0NIMl1ONVtDSDJdW0NIMl1bQ0BIXShbT0hdKUM1PU8=

> <s_epik_cmdline>
J2VwaWtfcHl0aG9uJywgJy1waHQnLCAnMC41JywgJy1waCcsICc3LjUnLCAnLXRuJywgJzgnLCAnLW1hJywgJzUwMCcsICctaW1hZScsICc8aW5maWxlLm1hZT4nLCAnLW9tYWUnLCAnPG91dGZpbGUubWFlPic=

> <r_lp_tautomer_probability>
1

> <r_epik_Ionization_Penalty>
0.000250842

> <r_epik_Ionization_Penalty_Charging>
0

> <r_epik_Ionization_Penalty_Neutral>
0.000250842

> <r_epik_State_Penalty>
-0

> <r_epik_Charging_Adjusted_Penalty>
0

> <i_epik_Tot_Q>
0

> <i_epik_Tot_abs_Q>
0

> <s_lp_Force_Field>
S-OPLS

> <r_lp_Energy>
49.5975

> <b_lp_Chiralities_Consistent>
1

> <s_lp_Variant>
ligprep_h3d.sdf:1322-1

> <ROCS_ShapeQuery>
_7L13

> <ROCS_TanimotoCombo>
0.711 

> <ROCS_ShapeTanimoto>
0.633 

> <ROCS_ColorTanimoto>
0.078 

> <ROCS_RefTversky>
0.779 

> <ROCS_RefColorTversky>
0.173 

> <ROCS_RefTverskyCombo>
0.952 

> <ROCS_FitTversky>
0.772 

> <ROCS_FitColorTversky>
0.124 

> <ROCS_FitTverskyCombo>
0.896 

> <ROCS_ColorScore>
-1.591

> <ROCS_Overlap>
1293.960

> <ROCS_Rank>
379                 

$$$$
ligprep_h3d.sdf:5884_624
  -OEChem-08212117123D

 54 58  0     0  0  0  0  0  0999 V2000
  -19.8628   -7.8832  -35.8253 C   0  0  0  0  0  0  0  0  0  0  0  0
  -19.0024   -7.1632  -36.6540 C   0  0  0  0  0  0  0  0  0  0  0  0
  -19.6475   -4.8232  -25.5179 C   0  0  0  0  0  0  0  0  0  0  0  0
  -24.7053   -4.0677  -23.0483 C   0  0  0  0  0  0  0  0  0  0  0  0
  -20.4914   -7.2495  -34.7534 C   0  0  0  0  0  0  0  0  0  0  0  0
  -20.8889   -4.7863  -24.8830 C   0  0  0  0  0  0  0  0  0  0  0  0
  -23.4546   -4.0939  -23.6551 C   0  0  0  0  0  0  0  0  0  0  0  0
  -19.5647   -4.6430  -26.8987 C   0  0  0  0  0  0  0  0  0  0  0  0
  -18.7704   -5.8094  -36.4107 C   0  0  0  0  0  0  0  0  0  0  0  0
  -23.6652   -3.4475  -31.9034 C   0  0  0  0  0  0  0  0  0  0  0  0
  -20.4924   -5.1312  -32.0927 C   0  0  0  0  0  0  0  0  0  0  0  0
  -21.9647   -4.3892  -27.0096 C   0  0  0  0  0  0  0  0  0  0  0  0
  -25.7965   -4.4854  -23.7931 C   0  0  0  0  0  0  0  0  0  0  0  0
  -24.4874   -4.9280  -25.6284 C   0  0  0  0  0  0  0  0  0  0  0  0
  -23.7155   -3.0680  -30.5759 C   0  0  0  0  0  0  0  0  0  0  0  0
  -21.4939   -4.4221  -31.3668 C   0  0  0  0  0  0  0  0  0  0  0  0
  -22.0475   -4.5693  -25.6288 C   0  0  0  0  0  0  0  0  0  0  0  0
  -23.3349   -4.5309  -24.9697 C   0  0  0  0  0  0  0  0  0  0  0  0
  -20.2594   -5.8957  -34.5101 C   0  0  0  0  0  0  0  0  0  0  0  0
  -22.5168   -4.1367  -32.2713 C   0  0  0  0  0  0  0  0  0  0  0  0
  -20.7233   -4.4261  -27.6445 C   0  0  0  0  0  0  0  0  0  0  0  0
  -19.3989   -5.1757  -35.3387 C   0  0  0  0  0  0  0  0  0  0  0  0
  -20.9208   -5.2575  -33.3937 C   0  0  0  0  0  0  0  0  0  0  0  0
  -21.5984   -4.0140  -30.0378 C   0  0  0  0  0  0  0  0  0  0  0  0
  -22.9411   -4.5653  -34.6992 C   0  0  0  0  0  0  0  0  0  0  0  0
  -18.0589   -3.5269  -34.2701 C   0  0  0  0  0  0  0  0  0  0  0  0
  -25.7194   -4.9164  -25.0721 N   0  0  0  0  0  0  0  0  0  0  0  0
  -22.1445   -4.6535  -33.4914 N   0  0  0  0  0  0  0  0  0  0  0  0
  -22.7198   -3.3557  -29.7330 N   0  3  0  0  0  0  0  0  0  0  0  0
  -20.6386   -4.2437  -29.0463 N   0  0  0  0  0  0  0  0  0  0  0  0
  -19.1533   -3.8515  -35.1240 O   0  0  0  0  0  0  0  0  0  0  0  0
  -20.0427   -8.9377  -36.0143 H   0  0  0  0  0  0  0  0  0  0  0  0
  -18.5134   -7.6565  -37.4889 H   0  0  0  0  0  0  0  0  0  0  0  0
  -18.7455   -4.9921  -24.9370 H   0  0  0  0  0  0  0  0  0  0  0  0
  -24.8231   -3.7319  -22.0244 H   0  0  0  0  0  0  0  0  0  0  0  0
  -21.1595   -7.8255  -34.1179 H   0  0  0  0  0  0  0  0  0  0  0  0
  -20.9370   -4.9291  -23.8060 H   0  0  0  0  0  0  0  0  0  0  0  0
  -22.5826   -3.7711  -23.0919 H   0  0  0  0  0  0  0  0  0  0  0  0
  -18.5919   -4.6734  -27.3832 H   0  0  0  0  0  0  0  0  0  0  0  0
  -18.0992   -5.2544  -37.0604 H   0  0  0  0  0  0  0  0  0  0  0  0
  -24.4645   -3.2211  -32.5974 H   0  0  0  0  0  0  0  0  0  0  0  0
  -19.5574   -5.5073  -31.6979 H   0  0  0  0  0  0  0  0  0  0  0  0
  -22.8661   -4.2198  -27.5955 H   0  0  0  0  0  0  0  0  0  0  0  0
  -26.7940   -4.4835  -23.3655 H   0  0  0  0  0  0  0  0  0  0  0  0
  -24.4616   -5.2806  -26.6556 H   0  0  0  0  0  0  0  0  0  0  0  0
  -24.5477   -2.5254  -30.1470 H   0  0  0  0  0  0  0  0  0  0  0  0
  -22.6634   -3.6452  -35.2200 H   0  0  0  0  0  0  0  0  0  0  0  0
  -22.7434   -5.4364  -35.3302 H   0  0  0  0  0  0  0  0  0  0  0  0
  -24.0015   -4.5498  -34.4324 H   0  0  0  0  0  0  0  0  0  0  0  0
  -17.9730   -2.4410  -34.1835 H   0  0  0  0  0  0  0  0  0  0  0  0
  -17.1371   -3.9443  -34.6832 H   0  0  0  0  0  0  0  0  0  0  0  0
  -18.2399   -3.9559  -33.2817 H   0  0  0  0  0  0  0  0  0  0  0  0
  -22.8226   -3.0452  -28.7665 H   0  0  0  0  0  0  0  0  0  0  0  0
  -19.6806   -4.2917  -29.3945 H   0  0  0  0  0  0  0  0  0  0  0  0
  1  2  2  0  0  0  0
  1  5  1  0  0  0  0
  2  9  1  0  0  0  0
  3  6  2  0  0  0  0
  3  8  1  0  0  0  0
  4  7  1  0  0  0  0
  4 13  2  0  0  0  0
  5 19  2  0  0  0  0
  6 17  1  0  0  0  0
  7 18  2  0  0  0  0
  8 21  2  0  0  0  0
  9 22  2  0  0  0  0
 10 15  1  0  0  0  0
 10 20  2  0  0  0  0
 11 16  1  0  0  0  0
 11 23  2  0  0  0  0
 12 17  2  0  0  0  0
 12 21  1  0  0  0  0
 13 27  1  0  0  0  0
 14 18  1  0  0  0  0
 14 27  2  0  0  0  0
 15 29  2  0  0  0  0
 16 20  1  0  0  0  0
 16 24  2  0  0  0  0
 17 18  1  0  0  0  0
 19 22  1  0  0  0  0
 19 23  1  0  0  0  0
 20 28  1  0  0  0  0
 21 30  1  0  0  0  0
 22 31  1  0  0  0  0
 23 28  1  0  0  0  0
 24 29  1  0  0  0  0
 24 30  1  0  0  0  0
 25 28  1  0  0  0  0
 26 31  1  0  0  0  0
  1 32  1  0  0  0  0
  2 33  1  0  0  0  0
  3 34  1  0  0  0  0
  4 35  1  0  0  0  0
  5 36  1  0  0  0  0
  6 37  1  0  0  0  0
  7 38  1  0  0  0  0
  8 39  1  0  0  0  0
  9 40  1  0  0  0  0
 10 41  1  0  0  0  0
 11 42  1  0  0  0  0
 12 43  1  0  0  0  0
 13 44  1  0  0  0  0
 14 45  1  0  0  0  0
 15 46  1  0  0  0  0
 25 47  1  0  0  0  0
 25 48  1  0  0  0  0
 25 49  1  0  0  0  0
 26 50  1  0  0  0  0
 26 51  1  0  0  0  0
 26 52  1  0  0  0  0
 29 53  1  0  0  0  0
 30 54  1  0  0  0  0
M  CHG  1  29   1
M  END
> <SMILES>
COc1ccccc1-c1cc2c(nccc2n1C)Nc1cccc(c1)-c1cccnc1

> <FORMATTED_ID>
H3D-000190

> <MOLFORMULA>
C26H22N4O

> <Exact Mass>
406.18

> <XLogP>
5.91

> <TPSA_NOPS>
52

> <s_m_source_file>
ligprep_h3d.sdf

> <i_m_source_file_index>
5884

> <i_lp_mmshare_version>
55123

> <i_f3d_flags>
0

> <s_epik_input>
W0NIM11PYzFbY0hdW2NIXVtjSF1bY0hdYzEtYyhbY0hdMiluKFtDSDNdKWMoYzIzKVtjSF1bY0hdbmMzW05IXWM0W2NIXVtjSF1bY0hdYyhbY0hdNCktYzVbY0hdW2NIXVtjSF1uW2NIXTU=

> <s_epik_cmdline>
J2VwaWtfcHl0aG9uJywgJy1waHQnLCAnMC41JywgJy1waCcsICc3LjUnLCAnLXRuJywgJzgnLCAnLW1hJywgJzUwMCcsICctaW1hZScsICc8aW5maWxlLm1hZT4nLCAnLW9tYWUnLCAnPG91dGZpbGUubWFlPic=

> <r_lp_tautomer_probability>
1

> <r_epik_Ionization_Penalty>
0.0636633

> <r_epik_Ionization_Penalty_Charging>
0.0614281

> <r_epik_Ionization_Penalty_Neutral>
0.00223513

> <r_epik_State_Penalty>
0.0533191

> <r_epik_Charging_Adjusted_Penalty>
0.114747

> <i_epik_Tot_Q>
1

> <i_epik_Tot_abs_Q>
1

> <s_lp_Force_Field>
S-OPLS

> <r_lp_Energy>
61.4451

> <b_lp_Chiralities_Consistent>
1

> <s_lp_Variant>
ligprep_h3d.sdf:5884-1

> <ROCS_ShapeQuery>
_7L13

> <ROCS_TanimotoCombo>
0.839 

> <ROCS_ShapeTanimoto>
0.701 

> <ROCS_ColorTanimoto>
0.138 

> <ROCS_RefTversky>
0.779 

> <ROCS_RefColorTversky>
0.255 

> <ROCS_RefTverskyCombo>
1.034 

> <ROCS_FitTversky>
0.875 

> <ROCS_FitColorTversky>
0.231 

> <ROCS_FitTverskyCombo>
1.106 

> <ROCS_ColorScore>
-2.307

> <ROCS_Overlap>
1285.469

> <ROCS_Rank>
380                 

$$$$
ligprep_h3d.sdf:2921_778
  -OEChem-08212117123D

 65 69  0     0  0  0  0  0  0999 V2000
  -17.4019   -4.1741  -24.8270 C   0  0  0  0  0  0  0  0  0  0  0  0
  -17.9002   -5.7874  -26.5549 C   0  0  0  0  0  0  0  0  0  0  0  0
  -16.5613   -5.0982  -24.2065 C   0  0  0  0  0  0  0  0  0  0  0  0
  -17.0595   -6.7116  -25.9345 C   0  0  0  0  0  0  0  0  0  0  0  0
  -18.5661   -7.5934  -36.7231 C   0  0  0  0  0  0  0  0  0  0  0  0
  -18.4738   -6.2056  -36.6190 C   0  0  0  0  0  0  0  0  0  0  0  0
  -20.5838   -7.5590  -35.3946 C   0  0  0  0  0  0  0  0  0  0  0  0
  -23.5286   -4.8168  -25.5429 C   0  0  0  0  0  0  0  0  0  0  0  0
  -21.1756   -3.6852  -24.4155 C   0  0  0  0  0  0  0  0  0  0  0  0
  -18.0714   -4.5187  -26.0012 C   0  0  0  0  0  0  0  0  0  0  0  0
  -16.3901   -6.3669  -24.7603 C   0  0  0  0  0  0  0  0  0  0  0  0
  -19.6211   -8.2702  -36.1110 C   0  0  0  0  0  0  0  0  0  0  0  0
  -20.4915   -6.1711  -35.2904 C   0  0  0  0  0  0  0  0  0  0  0  0
  -22.3821   -4.6269  -26.3328 C   0  0  0  0  0  0  0  0  0  0  0  0
  -21.2444   -4.0710  -25.7546 C   0  0  0  0  0  0  0  0  0  0  0  0
  -19.4365   -5.4944  -35.9026 C   0  0  0  0  0  0  0  0  0  0  0  0
  -23.4826   -4.4368  -24.1957 C   0  0  0  0  0  0  0  0  0  0  0  0
  -22.3259   -3.8812  -23.6441 C   0  0  0  0  0  0  0  0  0  0  0  0
  -20.9281   -4.5376  -27.8939 C   0  0  0  0  0  0  0  0  0  0  0  0
  -19.6445   -5.5686  -31.2560 C   0  0  0  0  0  0  0  0  0  0  0  0
  -21.6632   -4.1066  -30.9822 C   0  0  0  0  0  0  0  0  0  0  0  0
  -20.2127   -6.0307  -32.5990 C   0  0  0  0  0  0  0  0  0  0  0  0
  -22.1641   -4.6160  -32.3348 C   0  0  0  0  0  0  0  0  0  0  0  0
  -20.7580   -5.1338  -30.3028 C   0  0  0  0  0  0  0  0  0  0  0  0
  -19.7200   -9.7539  -36.2239 C   0  0  0  0  0  0  0  0  0  0  0  0
  -18.9781   -3.5222  -26.6714 C   0  0  0  0  0  0  0  0  0  0  0  0
  -21.5371   -5.4214  -34.5166 C   0  0  0  0  0  0  0  0  0  0  0  0
  -15.4898   -7.3540  -24.0972 C   0  0  0  0  0  0  0  0  0  0  0  0
  -22.1667   -4.9104  -27.6619 N   0  0  0  0  0  0  0  0  0  0  0  0
  -20.3305   -4.0256  -26.7760 N   0  0  0  0  0  0  0  0  0  0  0  0
  -21.0434   -4.9843  -33.2108 N   0  0  0  0  0  0  0  0  0  0  0  0
  -20.2147   -4.6074  -29.0755 N   0  0  0  0  0  0  0  0  0  0  0  0
  -19.3299   -4.1392  -35.8097 O   0  0  0  0  0  0  0  0  0  0  0  0
  -24.5652   -4.6105  -23.4249 F   0  0  0  0  0  0  0  0  0  0  0  0
  -22.3167   -3.5293  -22.3505 F   0  0  0  0  0  0  0  0  0  0  0  0
  -14.9011   -6.8799  -22.9594 F   0  0  0  0  0  0  0  0  0  0  0  0
  -16.1233   -8.5031  -23.7179 F   0  0  0  0  0  0  0  0  0  0  0  0
  -14.4622   -7.7513  -24.9028 F   0  0  0  0  0  0  0  0  0  0  0  0
  -17.5295   -3.1879  -24.3882 H   0  0  0  0  0  0  0  0  0  0  0  0
  -18.4169   -6.0637  -27.4704 H   0  0  0  0  0  0  0  0  0  0  0  0
  -16.0425   -4.8202  -23.2930 H   0  0  0  0  0  0  0  0  0  0  0  0
  -16.9316   -7.6979  -26.3725 H   0  0  0  0  0  0  0  0  0  0  0  0
  -17.8122   -8.1397  -37.2838 H   0  0  0  0  0  0  0  0  0  0  0  0
  -17.6502   -5.6849  -37.1001 H   0  0  0  0  0  0  0  0  0  0  0  0
  -21.4061   -8.0875  -34.9180 H   0  0  0  0  0  0  0  0  0  0  0  0
  -24.4320   -5.2479  -25.9621 H   0  0  0  0  0  0  0  0  0  0  0  0
  -20.2786   -3.2538  -23.9858 H   0  0  0  0  0  0  0  0  0  0  0  0
  -19.0890   -6.3946  -30.7995 H   0  0  0  0  0  0  0  0  0  0  0  0
  -18.9294   -4.7562  -31.4109 H   0  0  0  0  0  0  0  0  0  0  0  0
  -21.1398   -3.1551  -31.1107 H   0  0  0  0  0  0  0  0  0  0  0  0
  -22.5235   -3.9079  -30.3342 H   0  0  0  0  0  0  0  0  0  0  0  0
  -19.3963   -6.3266  -33.2708 H   0  0  0  0  0  0  0  0  0  0  0  0
  -20.8216   -6.9255  -32.4194 H   0  0  0  0  0  0  0  0  0  0  0  0
  -22.7936   -5.4961  -32.1533 H   0  0  0  0  0  0  0  0  0  0  0  0
  -22.8007   -3.8579  -32.8098 H   0  0  0  0  0  0  0  0  0  0  0  0
  -21.3676   -6.0230  -30.0414 H   0  0  0  0  0  0  0  0  0  0  0  0
  -19.1835  -10.2366  -35.3979 H   0  0  0  0  0  0  0  0  0  0  0  0
  -20.7659  -10.0865  -36.2008 H   0  0  0  0  0  0  0  0  0  0  0  0
  -19.2943  -10.1107  -37.1709 H   0  0  0  0  0  0  0  0  0  0  0  0
  -19.0060   -2.5764  -26.1166 H   0  0  0  0  0  0  0  0  0  0  0  0
  -18.6236   -3.2802  -27.6807 H   0  0  0  0  0  0  0  0  0  0  0  0
  -21.8630   -4.5331  -35.0685 H   0  0  0  0  0  0  0  0  0  0  0  0
  -22.4228   -6.0431  -34.3486 H   0  0  0  0  0  0  0  0  0  0  0  0
  -19.2602   -4.2749  -29.0878 H   0  0  0  0  0  0  0  0  0  0  0  0
  -18.5441   -3.8315  -36.2879 H   0  0  0  0  0  0  0  0  0  0  0  0
  1  3  1  0  0  0  0
  1 10  2  0  0  0  0
  2  4  2  0  0  0  0
  2 10  1  0  0  0  0
  3 11  2  0  0  0  0
  4 11  1  0  0  0  0
  5  6  1  0  0  0  0
  5 12  2  0  0  0  0
  6 16  2  0  0  0  0
  7 12  1  0  0  0  0
  7 13  2  0  0  0  0
  8 14  2  0  0  0  0
  8 17  1  0  0  0  0
  9 15  2  0  0  0  0
  9 18  1  0  0  0  0
 10 26  1  0  0  0  0
 11 28  1  0  0  0  0
 12 25  1  0  0  0  0
 13 16  1  0  0  0  0
 13 27  1  0  0  0  0
 14 15  1  0  0  0  0
 14 29  1  0  0  0  0
 15 30  1  0  0  0  0
 16 33  1  0  0  0  0
 17 18  2  0  0  0  0
 17 34  1  0  0  0  0
 18 35  1  0  0  0  0
 19 29  2  0  0  0  0
 19 30  1  0  0  0  0
 19 32  1  0  0  0  0
 20 22  1  0  0  0  0
 20 24  1  0  0  0  0
 21 23  1  0  0  0  0
 21 24  1  0  0  0  0
 22 31  1  0  0  0  0
 23 31  1  0  0  0  0
 24 32  1  0  0  0  0
 26 30  1  0  0  0  0
 27 31  1  0  0  0  0
 28 36  1  0  0  0  0
 28 37  1  0  0  0  0
 28 38  1  0  0  0  0
  1 39  1  0  0  0  0
  2 40  1  0  0  0  0
  3 41  1  0  0  0  0
  4 42  1  0  0  0  0
  5 43  1  0  0  0  0
  6 44  1  0  0  0  0
  7 45  1  0  0  0  0
  8 46  1  0  0  0  0
  9 47  1  0  0  0  0
 20 48  1  0  0  0  0
 20 49  1  0  0  0  0
 21 50  1  0  0  0  0
 21 51  1  0  0  0  0
 22 52  1  0  0  0  0
 22 53  1  0  0  0  0
 23 54  1  0  0  0  0
 23 55  1  0  0  0  0
 24 56  1  0  0  0  0
 25 57  1  0  0  0  0
 25 58  1  0  0  0  0
 25 59  1  0  0  0  0
 26 60  1  0  0  0  0
 26 61  1  0  0  0  0
 27 62  1  0  0  0  0
 27 63  1  0  0  0  0
 32 64  1  0  0  0  0
 33 65  1  0  0  0  0
M  END
> <SMILES>
Cc1ccc(c(c1)CN1CCC(CC1)Nc1nc2cc(c(cc2n1Cc1ccc(cc1)C(F)(F)F)F)F)O

> <FORMATTED_ID>
H3D-012703

> <MOLFORMULA>
C28H27F5N4O

> <Exact Mass>
530.21

> <XLogP>
7.8

> <TPSA_NOPS>
53.3

> <s_m_source_file>
ligprep_h3d.sdf

> <i_m_source_file_index>
2921

> <i_lp_mmshare_version>
55123

> <i_f3d_flags>
0

> <s_epik_input>
W0NIM11jMVtjSF1bY0hdYyhbT0hdKWMoW2NIXTEpW0NIMl1OMltDSDJdW0NIMl1bQ0hdKFtDSDJdW0NIMl0yKVtOSF1jKG4zKW4oYyhjMzQpW2NIXWMoRiljKEYpW2NIXTQpW0NIMl1jNVtjSF1bY0hdYyhDKEYpKEYpRilbY0hdW2NIXTU=

> <s_epik_cmdline>
J2VwaWtfcHl0aG9uJywgJy1waHQnLCAnMC41JywgJy1waCcsICc3LjUnLCAnLXRuJywgJzgnLCAnLW1hJywgJzUwMCcsICctaW1hZScsICc8aW5maWxlLm1hZT4nLCAnLW9tYWUnLCAnPG91dGZpbGUubWFlPic=

> <r_lp_tautomer_probability>
1

> <r_epik_Ionization_Penalty>
0.398547

> <r_epik_Ionization_Penalty_Charging>
0

> <r_epik_Ionization_Penalty_Neutral>
0.398547

> <r_epik_State_Penalty>
0.35896

> <r_epik_Charging_Adjusted_Penalty>
0.35896

> <i_epik_Tot_Q>
0

> <i_epik_Tot_abs_Q>
0

> <s_lp_Force_Field>
S-OPLS

> <r_lp_Energy>
30.0048

> <b_lp_Chiralities_Consistent>
1

> <s_lp_Variant>
ligprep_h3d.sdf:2921-1

> <ROCS_ShapeQuery>
_7L13

> <ROCS_TanimotoCombo>
0.668 

> <ROCS_ShapeTanimoto>
0.611 

> <ROCS_ColorTanimoto>
0.057 

> <ROCS_RefTversky>
0.779 

> <ROCS_RefColorTversky>
0.113 

> <ROCS_RefTverskyCombo>
0.892 

> <ROCS_FitTversky>
0.740 

> <ROCS_FitColorTversky>
0.102 

> <ROCS_FitTverskyCombo>
0.842 

> <ROCS_ColorScore>
-1.021

> <ROCS_Overlap>
1296.878

> <ROCS_Rank>
381                 

$$$$
ligprep_h3d.sdf:2702_178
  -OEChem-08212117123D

 53 56  0     0  0  0  0  0  0999 V2000
  -19.0101   -5.0478  -24.2042 C   0  0  0  0  0  0  0  0  0  0  0  0
  -22.5192   -3.9190  -32.3381 C   0  0  0  0  0  0  0  0  0  0  0  0
  -23.2340   -2.6924  -30.3833 C   0  0  0  0  0  0  0  0  0  0  0  0
  -24.3442   -4.7560  -23.1122 C   0  0  0  0  0  0  0  0  0  0  0  0
  -24.8062   -4.1946  -25.8415 C   0  0  0  0  0  0  0  0  0  0  0  0
  -23.1751   -2.8267  -31.7704 C   0  0  0  0  0  0  0  0  0  0  0  0
  -21.9222   -4.8771  -31.5187 C   0  0  0  0  0  0  0  0  0  0  0  0
  -23.2654   -4.6266  -24.0058 C   0  0  0  0  0  0  0  0  0  0  0  0
  -23.4977   -4.3278  -25.3496 C   0  0  0  0  0  0  0  0  0  0  0  0
  -22.6370   -3.6504  -29.5638 C   0  0  0  0  0  0  0  0  0  0  0  0
  -21.9811   -4.7428  -30.1315 C   0  0  0  0  0  0  0  0  0  0  0  0
  -25.6447   -4.6007  -23.5948 C   0  0  0  0  0  0  0  0  0  0  0  0
  -25.8698   -4.3312  -24.9408 C   0  0  0  0  0  0  0  0  0  0  0  0
  -21.3244   -4.5845  -24.9076 C   0  0  0  0  0  0  0  0  0  0  0  0
  -20.4875   -4.0119  -27.5057 C   0  0  0  0  0  0  0  0  0  0  0  0
  -19.9308   -4.6725  -25.2266 C   0  0  0  0  0  0  0  0  0  0  0  0
  -19.5198   -4.4077  -26.4875 C   0  0  0  0  0  0  0  0  0  0  0  0
  -21.8060   -3.9223  -27.2338 C   0  0  0  0  0  0  0  0  0  0  0  0
  -23.8148   -1.8043  -32.6475 C   0  0  0  0  0  0  0  0  0  0  0  0
  -19.9376   -6.6352  -35.6784 C   0  0  0  0  0  0  0  0  0  0  0  0
  -21.2247   -6.0393  -32.1455 C   0  0  0  0  0  0  0  0  0  0  0  0
  -20.2056   -6.9700  -34.2273 C   0  0  0  0  0  0  0  0  0  0  0  0
  -18.0957   -4.4676  -26.9730 C   0  0  0  0  0  0  0  0  0  0  0  0
  -18.2613   -5.3532  -23.3724 N   0  0  0  0  0  0  0  0  0  0  0  0
  -21.9312   -4.7744  -23.7554 N   0  0  0  0  0  0  0  0  0  0  0  0
  -22.2291   -4.2455  -25.9239 N   0  0  0  0  0  0  0  0  0  0  0  0
  -22.7049   -3.5027  -28.1754 N   0  0  0  0  0  0  0  0  0  0  0  0
  -20.9500   -5.8491  -33.5958 N   0  3  0  0  0  0  0  0  0  0  0  0
  -21.3971   -5.6822  -29.3329 O   0  0  0  0  0  0  0  0  0  0  0  0
  -26.6830   -4.7265  -22.7574 F   0  0  0  0  0  0  0  0  0  0  0  0
  -27.1274   -4.2044  -25.3871 F   0  0  0  0  0  0  0  0  0  0  0  0
  -18.0240   -4.1342  -28.2748 F   0  0  0  0  0  0  0  0  0  0  0  0
  -17.3195   -3.6160  -26.2778 F   0  0  0  0  0  0  0  0  0  0  0  0
  -17.5926   -5.7074  -26.8285 F   0  0  0  0  0  0  0  0  0  0  0  0
  -22.4743   -4.0235  -33.4197 H   0  0  0  0  0  0  0  0  0  0  0  0
  -23.7466   -1.8401  -29.9428 H   0  0  0  0  0  0  0  0  0  0  0  0
  -24.1730   -4.9834  -22.0645 H   0  0  0  0  0  0  0  0  0  0  0  0
  -25.0254   -4.0069  -26.8846 H   0  0  0  0  0  0  0  0  0  0  0  0
  -20.1091   -3.7658  -28.4943 H   0  0  0  0  0  0  0  0  0  0  0  0
  -24.8564   -2.0777  -32.8561 H   0  0  0  0  0  0  0  0  0  0  0  0
  -23.8031   -0.8123  -32.1773 H   0  0  0  0  0  0  0  0  0  0  0  0
  -23.2821   -1.7091  -33.6027 H   0  0  0  0  0  0  0  0  0  0  0  0
  -20.8814   -6.5133  -36.2186 H   0  0  0  0  0  0  0  0  0  0  0  0
  -19.3714   -5.7026  -35.7713 H   0  0  0  0  0  0  0  0  0  0  0  0
  -19.3668   -7.4304  -36.1692 H   0  0  0  0  0  0  0  0  0  0  0  0
  -20.2543   -6.2314  -31.6694 H   0  0  0  0  0  0  0  0  0  0  0  0
  -21.8190   -6.9586  -32.0612 H   0  0  0  0  0  0  0  0  0  0  0  0
  -19.2774   -7.0974  -33.6635 H   0  0  0  0  0  0  0  0  0  0  0  0
  -20.8261   -7.8647  -34.1268 H   0  0  0  0  0  0  0  0  0  0  0  0
  -23.5131   -3.0291  -27.8021 H   0  0  0  0  0  0  0  0  0  0  0  0
  -21.8412   -5.7136  -34.0915 H   0  0  0  0  0  0  0  0  0  0  0  0
  -20.4209   -4.9763  -33.7256 H   0  0  0  0  0  0  0  0  0  0  0  0
  -20.9866   -6.3724  -29.8760 H   0  0  0  0  0  0  0  0  0  0  0  0
  1 16  1  0  0  0  0
  1 24  3  0  0  0  0
  2  6  1  0  0  0  0
  2  7  2  0  0  0  0
  3  6  2  0  0  0  0
  3 10  1  0  0  0  0
  4  8  2  0  0  0  0
  4 12  1  0  0  0  0
  5  9  2  0  0  0  0
  5 13  1  0  0  0  0
  6 19  1  0  0  0  0
  7 11  1  0  0  0  0
  7 21  1  0  0  0  0
  8  9  1  0  0  0  0
  8 25  1  0  0  0  0
  9 26  1  0  0  0  0
 10 11  2  0  0  0  0
 10 27  1  0  0  0  0
 11 29  1  0  0  0  0
 12 13  2  0  0  0  0
 12 30  1  0  0  0  0
 13 31  1  0  0  0  0
 14 16  1  0  0  0  0
 14 25  2  0  0  0  0
 14 26  1  0  0  0  0
 15 17  1  0  0  0  0
 15 18  2  0  0  0  0
 16 17  2  0  0  0  0
 17 23  1  0  0  0  0
 18 26  1  0  0  0  0
 18 27  1  0  0  0  0
 20 22  1  0  0  0  0
 21 28  1  0  0  0  0
 22 28  1  0  0  0  0
 23 32  1  0  0  0  0
 23 33  1  0  0  0  0
 23 34  1  0  0  0  0
  2 35  1  0  0  0  0
  3 36  1  0  0  0  0
  4 37  1  0  0  0  0
  5 38  1  0  0  0  0
 15 39  1  0  0  0  0
 19 40  1  0  0  0  0
 19 41  1  0  0  0  0
 19 42  1  0  0  0  0
 20 43  1  0  0  0  0
 20 44  1  0  0  0  0
 20 45  1  0  0  0  0
 21 46  1  0  0  0  0
 21 47  1  0  0  0  0
 22 48  1  0  0  0  0
 22 49  1  0  0  0  0
 27 50  1  0  0  0  0
 28 51  1  0  0  0  0
 28 52  1  0  0  0  0
 29 53  1  0  0  0  0
M  CHG  1  28   1
M  END
> <SMILES>
CCNCc1cc(cc(c1O)Nc1cc(c(c2nc3cc(c(cc3n12)F)F)C#N)C(F)(F)F)C

> <FORMATTED_ID>
H3D-008157

> <MOLFORMULA>
C23H18F5N5O

> <Exact Mass>
475.14

> <XLogP>
6.14

> <TPSA_NOPS>
85.4

> <s_m_source_file>
ligprep_h3d.sdf

> <i_m_source_file_index>
2702

> <i_lp_mmshare_version>
55123

> <i_f3d_flags>
0

> <s_epik_input>
W0NIM11bQ0gyXVtOSF1bQ0gyXWMxW2NIXWMoW0NIM10pW2NIXWMoYzFbT0hdKVtOSF1jKFtjSF1jKEMoRikoRilGKWMyQyNOKW4oYzIzKWM0YyhuMylbY0hdYyhGKWMoRilbY0hdNA==

> <s_epik_cmdline>
J2VwaWtfcHl0aG9uJywgJy1waHQnLCAnMC41JywgJy1waCcsICc3LjUnLCAnLXRuJywgJzgnLCAnLW1hJywgJzUwMCcsICctaW1hZScsICc8aW5maWxlLm1hZT4nLCAnLW9tYWUnLCAnPG91dGZpbGUubWFlPic=

> <r_epik_Ionization_Penalty>
0.0335503

> <r_epik_Ionization_Penalty_Charging>
0.0307962

> <r_epik_Ionization_Penalty_Neutral>
0.00275413

> <r_epik_State_Penalty>
0.0254156

> <r_epik_Charging_Adjusted_Penalty>
0.0562118

> <i_epik_Tot_Q>
1

> <i_epik_Tot_abs_Q>
1

> <s_lp_Force_Field>
S-OPLS

> <r_lp_Energy>
56.3826

> <b_lp_Chiralities_Consistent>
1

> <s_lp_Variant>
ligprep_h3d.sdf:2702-1

> <ROCS_ShapeQuery>
_7L13

> <ROCS_TanimotoCombo>
0.790 

> <ROCS_ShapeTanimoto>
0.660 

> <ROCS_ColorTanimoto>
0.131 

> <ROCS_RefTversky>
0.779 

> <ROCS_RefColorTversky>
0.255 

> <ROCS_RefTverskyCombo>
1.033 

> <ROCS_FitTversky>
0.812 

> <ROCS_FitColorTversky>
0.212 

> <ROCS_FitTverskyCombo>
1.024 

> <ROCS_ColorScore>
-2.318

> <ROCS_Overlap>
1290.094

> <ROCS_Rank>
382                 

$$$$
ligprep_h3d.sdf:1383_1991
  -OEChem-08212117123D

 72 75  0     1  0  0  0  0  0999 V2000
  -16.9812   -5.8130  -26.8261 C   0  0  0  0  0  0  0  0  0  0  0  0
  -23.4212   -4.3592  -28.6073 C   0  0  0  0  0  0  0  0  0  0  0  0
  -20.7938   -4.4048  -25.3878 C   0  0  0  0  0  0  0  0  0  0  0  0
  -16.9072   -4.4153  -26.9775 C   0  0  0  0  0  0  0  0  0  0  0  0
  -21.1861   -4.6204  -27.7636 C   0  0  0  0  0  0  0  0  0  0  0  0
  -22.9673   -4.5851  -29.9091 C   0  0  0  0  0  0  0  0  0  0  0  0
  -20.7293   -4.8477  -29.0730 C   0  0  0  0  0  0  0  0  0  0  0  0
  -22.5529   -4.3716  -27.5191 C   0  0  0  0  0  0  0  0  0  0  0  0
  -20.3116   -4.6327  -26.6686 C   0  0  0  0  0  0  0  0  0  0  0  0
  -21.6197   -4.8297  -30.1426 C   0  0  0  0  0  0  0  0  0  0  0  0
  -22.1466   -4.1705  -25.2476 C   0  0  0  0  0  0  0  0  0  0  0  0
  -18.3226   -6.0726  -26.6863 C   0  0  0  0  0  0  0  0  0  0  0  0
  -22.7165   -3.9254  -23.9338 C   0  0  0  0  0  0  0  0  0  0  0  0
  -19.3114   -5.7295  -35.2185 C   0  0  0  0  0  0  0  0  0  0  0  0
  -20.3502   -4.1803  -33.6004 C   0  0  0  0  0  0  0  0  0  0  0  0
  -20.1395   -6.6132  -33.0554 C   0  0  0  0  0  0  0  0  0  0  0  0
  -21.3626   -4.0162  -32.4675 C   0  0  0  0  0  0  0  0  0  0  0  0
  -21.1579   -6.4450  -31.9297 C   0  0  0  0  0  0  0  0  0  0  0  0
  -20.3726   -5.5965  -34.1705 C   0  0  0  0  0  0  0  0  0  0  0  0
  -23.9571   -4.5585  -31.0286 C   0  0  0  0  0  0  0  0  0  0  0  0
  -19.2917   -5.1197  -29.4117 C   0  0  0  0  0  0  0  0  0  0  0  0
  -19.0382   -7.3493  -26.4937 C   0  0  0  0  0  0  0  0  0  0  0  0
  -18.3130   -7.3196  -36.8485 C   0  0  0  0  0  0  0  0  0  0  0  0
  -28.6910   -4.8672  -23.6354 C   0  0  0  0  0  0  0  0  0  0  0  0
  -24.7568   -4.1276  -22.4892 C   0  0  0  0  0  0  0  0  0  0  0  0
  -26.2470   -3.9489  -22.7073 C   0  0  0  0  0  0  0  0  0  0  0  0
  -18.1062   -3.8282  -26.9377 N   0  0  0  0  0  0  0  0  0  0  0  0
  -23.0237   -4.1500  -26.2773 N   0  0  0  0  0  0  0  0  0  0  0  0
  -26.8946   -6.5309  -22.5647 N   0  0  0  0  0  0  0  0  0  0  0  0
  -18.9463   -4.8619  -26.7599 N   0  0  0  0  0  0  0  0  0  0  0  0
  -21.1715   -5.0557  -31.4498 N   0  0  0  0  0  0  0  0  0  0  0  0
  -24.0436   -4.3237  -23.7309 N   0  0  0  0  0  0  0  0  0  0  0  0
  -19.2601   -6.9762  -35.8122 N   0  0  0  0  0  0  0  0  0  0  0  0
  -22.0455   -3.3659  -23.0475 O   0  0  0  0  0  0  0  0  0  0  0  0
  -18.5906   -4.7717  -35.4734 O   0  0  0  0  0  0  0  0  0  0  0  0
  -26.4632   -5.3243  -24.8990 O   0  0  0  0  0  0  0  0  0  0  0  0
  -26.9743   -5.3279  -23.5361 S   0  0  1  0  0  0  0  0  0  0  0  0
  -16.1734   -6.5302  -26.8200 H   0  0  0  0  0  0  0  0  0  0  0  0
  -24.4804   -4.1674  -28.4397 H   0  0  0  0  0  0  0  0  0  0  0  0
  -20.1373   -4.4078  -24.5222 H   0  0  0  0  0  0  0  0  0  0  0  0
  -16.0294   -3.8004  -27.1153 H   0  0  0  0  0  0  0  0  0  0  0  0
  -20.5963   -3.4758  -34.3947 H   0  0  0  0  0  0  0  0  0  0  0  0
  -19.3565   -3.9314  -33.2326 H   0  0  0  0  0  0  0  0  0  0  0  0
  -19.1339   -6.5076  -32.6482 H   0  0  0  0  0  0  0  0  0  0  0  0
  -20.2261   -7.6207  -33.4655 H   0  0  0  0  0  0  0  0  0  0  0  0
  -21.2573   -3.0247  -32.0099 H   0  0  0  0  0  0  0  0  0  0  0  0
  -22.3735   -4.0777  -32.8889 H   0  0  0  0  0  0  0  0  0  0  0  0
  -22.1486   -6.7207  -32.3134 H   0  0  0  0  0  0  0  0  0  0  0  0
  -20.9308   -7.1255  -31.0995 H   0  0  0  0  0  0  0  0  0  0  0  0
  -21.3136   -5.7851  -34.6492 H   0  0  0  0  0  0  0  0  0  0  0  0
  -24.0464   -3.5432  -31.4311 H   0  0  0  0  0  0  0  0  0  0  0  0
  -23.6547   -5.2317  -31.8397 H   0  0  0  0  0  0  0  0  0  0  0  0
  -24.9462   -4.8896  -30.6897 H   0  0  0  0  0  0  0  0  0  0  0  0
  -19.0990   -6.1953  -29.3773 H   0  0  0  0  0  0  0  0  0  0  0  0
  -19.0512   -4.7463  -30.4115 H   0  0  0  0  0  0  0  0  0  0  0  0
  -18.6247   -4.6153  -28.7061 H   0  0  0  0  0  0  0  0  0  0  0  0
  -19.1450   -7.5871  -25.4227 H   0  0  0  0  0  0  0  0  0  0  0  0
  -20.0494   -7.3274  -26.9346 H   0  0  0  0  0  0  0  0  0  0  0  0
  -18.5146   -8.1935  -26.9740 H   0  0  0  0  0  0  0  0  0  0  0  0
  -18.7470   -7.0911  -37.8331 H   0  0  0  0  0  0  0  0  0  0  0  0
  -17.3907   -6.7362  -36.7102 H   0  0  0  0  0  0  0  0  0  0  0  0
  -18.0798   -8.3931  -36.7909 H   0  0  0  0  0  0  0  0  0  0  0  0
  -29.2339   -5.6681  -24.1398 H   0  0  0  0  0  0  0  0  0  0  0  0
  -29.0695   -4.7283  -22.6216 H   0  0  0  0  0  0  0  0  0  0  0  0
  -28.7659   -3.9382  -24.2025 H   0  0  0  0  0  0  0  0  0  0  0  0
  -24.3169   -3.2591  -21.9892 H   0  0  0  0  0  0  0  0  0  0  0  0
  -24.5702   -5.0119  -21.8724 H   0  0  0  0  0  0  0  0  0  0  0  0
  -26.4374   -3.0767  -23.3399 H   0  0  0  0  0  0  0  0  0  0  0  0
  -26.7839   -3.8235  -21.7622 H   0  0  0  0  0  0  0  0  0  0  0  0
  -25.9486   -6.8953  -22.4195 H   0  0  0  0  0  0  0  0  0  0  0  0
  -24.5663   -4.7182  -24.5060 H   0  0  0  0  0  0  0  0  0  0  0  0
  -19.9195   -7.6851  -35.5057 H   0  0  0  0  0  0  0  0  0  0  0  0
  1  4  1  0  0  0  0
  1 12  2  0  0  0  0
  2  6  1  0  0  0  0
  2  8  2  0  0  0  0
  3  9  2  0  0  0  0
  3 11  1  0  0  0  0
  4 27  2  0  0  0  0
  5  7  2  0  0  0  0
  5  8  1  0  0  0  0
  5  9  1  0  0  0  0
  6 10  2  0  0  0  0
  6 20  1  0  0  0  0
  7 10  1  0  0  0  0
  7 21  1  0  0  0  0
  8 28  1  0  0  0  0
  9 30  1  0  0  0  0
 10 31  1  0  0  0  0
 11 13  1  0  0  0  0
 11 28  2  0  0  0  0
 12 22  1  0  0  0  0
 12 30  1  0  0  0  0
 13 32  1  0  0  0  0
 13 34  2  0  0  0  0
 14 19  1  0  0  0  0
 14 33  1  0  0  0  0
 14 35  2  0  0  0  0
 15 17  1  0  0  0  0
 15 19  1  0  0  0  0
 16 18  1  0  0  0  0
 16 19  1  0  0  0  0
 17 31  1  0  0  0  0
 18 31  1  0  0  0  0
 23 33  1  0  0  0  0
 24 37  1  0  0  0  0
 25 26  1  0  0  0  0
 25 32  1  0  0  0  0
 26 37  1  0  0  0  0
 27 30  1  0  0  0  0
 29 37  2  0  0  0  0
 36 37  2  0  0  0  0
  1 38  1  0  0  0  0
  2 39  1  0  0  0  0
  3 40  1  0  0  0  0
  4 41  1  0  0  0  0
 15 42  1  0  0  0  0
 15 43  1  0  0  0  0
 16 44  1  0  0  0  0
 16 45  1  0  0  0  0
 17 46  1  0  0  0  0
 17 47  1  0  0  0  0
 18 48  1  0  0  0  0
 18 49  1  0  0  0  0
 19 50  1  0  0  0  0
 20 51  1  0  0  0  0
 20 52  1  0  0  0  0
 20 53  1  0  0  0  0
 21 54  1  0  0  0  0
 21 55  1  0  0  0  0
 21 56  1  0  0  0  0
 22 57  1  0  0  0  0
 22 58  1  0  0  0  0
 22 59  1  0  0  0  0
 23 60  1  0  0  0  0
 23 61  1  0  0  0  0
 23 62  1  0  0  0  0
 24 63  1  0  0  0  0
 24 64  1  0  0  0  0
 24 65  1  0  0  0  0
 25 66  1  0  0  0  0
 25 67  1  0  0  0  0
 26 68  1  0  0  0  0
 26 69  1  0  0  0  0
 29 70  1  0  0  0  0
 32 71  1  0  0  0  0
 33 72  1  0  0  0  0
M  END
> <SMILES>
CNC(=O)C1CCN(CC1)c1c(cc2nc(cc(c2c1C)-n1nccc1C)C(=O)NCCS(=N)(=O)C)C

> <FORMATTED_ID>
H3D-009307

> <MOLFORMULA>
C26H35N7O3S

> <Exact Mass>
525.25

> <XLogP>
2.05

> <TPSA_NOPS>
141.4

> <s_m_source_file>
ligprep_h3d.sdf

> <i_m_source_file_index>
1383

> <i_lp_mmshare_version>
55123

> <i_f3d_flags>
0

> <s_epik_input>
W0NIM11bTkhdQyg9TylbQ0hdMVtDSDJdW0NIMl1OKFtDSDJdW0NIMl0xKWMoYyhbY0hdMilbQ0gzXSljKFtDSDNdKWMoYzIzKWMoLW40bltjSF1bY0hdYzRbQ0gzXSlbY0hdYyhuMylDKD1PKVtOSF1bQ0gyXVtDSDJdW1NAQF0oPU8pKD1bTkhdKVtDSDNd

> <s_epik_cmdline>
J2VwaWtfcHl0aG9uJywgJy1waHQnLCAnMC41JywgJy1waCcsICc3LjUnLCAnLXRuJywgJzgnLCAnLW1hJywgJzUwMCcsICctaW1hZScsICc8aW5maWxlLm1hZT4nLCAnLW9tYWUnLCAnPG91dGZpbGUubWFlPic=

> <r_lp_tautomer_probability>
1

> <r_epik_Ionization_Penalty>
9.42627e-05

> <r_epik_Ionization_Penalty_Charging>
0

> <r_epik_Ionization_Penalty_Neutral>
9.42627e-05

> <r_epik_State_Penalty>
-0

> <r_epik_Charging_Adjusted_Penalty>
0

> <i_epik_Tot_Q>
0

> <i_epik_Tot_abs_Q>
0

> <s_lp_Force_Field>
S-OPLS

> <r_lp_Energy>
51.5158

> <b_lp_Chiralities_Consistent>
1

> <s_lp_Variant>
ligprep_h3d.sdf:1383-1

> <ROCS_ShapeQuery>
_7L13

> <ROCS_TanimotoCombo>
0.749 

> <ROCS_ShapeTanimoto>
0.636 

> <ROCS_ColorTanimoto>
0.113 

> <ROCS_RefTversky>
0.779 

> <ROCS_RefColorTversky>
0.223 

> <ROCS_RefTverskyCombo>
1.002 

> <ROCS_FitTversky>
0.776 

> <ROCS_FitColorTversky>
0.186 

> <ROCS_FitTverskyCombo>
0.963 

> <ROCS_ColorScore>
-2.034

> <ROCS_Overlap>
1293.223

> <ROCS_Rank>
383                 

$$$$
ligprep_h3d.sdf:1246_32
  -OEChem-08212117123D

 56 61  0     1  0  0  0  0  0999 V2000
  -20.7154   -5.0242  -29.9715 C   0  0  0  0  0  0  0  0  0  0  0  0
  -21.6195   -4.3019  -30.7529 C   0  0  0  0  0  0  0  0  0  0  0  0
  -20.8611   -5.0001  -28.5632 C   0  0  0  0  0  0  0  0  0  0  0  0
  -21.9120   -4.3075  -27.9185 C   0  0  0  0  0  0  0  0  0  0  0  0
  -22.6193   -3.5988  -30.1178 C   0  0  0  0  0  0  0  0  0  0  0  0
  -22.8009   -3.5675  -28.7350 C   0  0  0  0  0  0  0  0  0  0  0  0
  -21.8404   -4.0401  -32.1179 C   0  0  0  0  0  0  0  0  0  0  0  0
  -21.0408   -4.5558  -33.2436 C   0  0  0  0  0  0  0  0  0  0  0  0
  -20.0910   -5.8416  -34.6077 C   0  0  0  0  0  0  0  0  0  0  0  0
  -18.8972   -3.7903  -26.5644 C   0  0  0  0  0  0  0  0  0  0  0  0
  -18.7747   -6.1942  -25.6388 C   0  0  0  0  0  0  0  0  0  0  0  0
  -16.7200   -4.9545  -26.2874 C   0  0  0  0  0  0  0  0  0  0  0  0
  -19.8571   -5.7675  -27.7473 C   0  0  0  0  0  0  0  0  0  0  0  0
  -23.2254   -3.7321  -25.8972 C   0  0  0  0  0  0  0  0  0  0  0  0
  -23.5461   -4.2973  -24.5078 C   0  0  2  0  0  0  0  0  0  0  0  0
  -20.9759   -4.1403  -24.3141 C   0  0  1  0  0  0  0  0  0  0  0  0
  -21.0057   -4.9559  -25.6452 C   0  0  2  0  0  0  0  0  0  0  0  0
  -22.3257   -4.2756  -23.5744 C   0  0  1  0  0  0  0  0  0  0  0  0
  -19.6236   -5.1300  -26.3553 C   0  0  0  0  0  0  0  0  0  0  0  0
  -19.7009   -7.1311  -35.1915 C   0  0  0  0  0  0  0  0  0  0  0  0
  -24.1575   -5.7016  -24.6079 C   0  0  0  0  0  0  0  0  0  0  0  0
  -19.8475   -4.4941  -23.3369 C   0  0  0  0  0  0  0  0  0  0  0  0
  -22.8906   -3.2377  -32.3165 N   0  0  0  0  0  0  0  0  0  0  0  0
  -20.4087   -3.7777  -34.0908 N   0  0  0  0  0  0  0  0  0  0  0  0
  -19.7840   -4.6236  -34.9883 N   0  0  0  0  0  0  0  0  0  0  0  0
  -17.5160   -3.8754  -26.6438 N   0  0  0  0  0  0  0  0  0  0  0  0
  -17.4028   -6.0482  -25.7745 N   0  0  0  0  0  0  0  0  0  0  0  0
  -22.0447   -4.3483  -26.5249 N   0  0  3  0  0  0  0  0  0  0  0  0
  -19.4852   -2.7197  -26.7166 O   0  0  0  0  0  0  0  0  0  0  0  0
  -19.2668   -7.1625  -25.0577 O   0  0  0  0  0  0  0  0  0  0  0  0
  -15.4916   -4.9280  -26.3810 O   0  0  0  0  0  0  0  0  0  0  0  0
  -23.3807   -2.9576  -31.0463 O   0  0  0  0  0  0  0  0  0  0  0  0
  -20.8879   -5.8828  -33.5049 O   0  0  0  0  0  0  0  0  0  0  0  0
  -22.4426   -3.1593  -22.6850 O   0  0  0  0  0  0  0  0  0  0  0  0
  -23.7501   -2.7682  -28.2270 F   0  0  0  0  0  0  0  0  0  0  0  0
  -19.9070   -5.5853  -30.4333 H   0  0  0  0  0  0  0  0  0  0  0  0
  -20.2243   -6.8005  -27.6494 H   0  0  0  0  0  0  0  0  0  0  0  0
  -18.9054   -5.8278  -28.2968 H   0  0  0  0  0  0  0  0  0  0  0  0
  -24.0953   -3.8981  -26.5741 H   0  0  0  0  0  0  0  0  0  0  0  0
  -23.1812   -2.6253  -25.8343 H   0  0  0  0  0  0  0  0  0  0  0  0
  -24.3411   -3.6559  -24.0501 H   0  0  0  0  0  0  0  0  0  0  0  0
  -20.8539   -3.0674  -24.5382 H   0  0  0  0  0  0  0  0  0  0  0  0
  -21.3778   -5.9597  -25.4012 H   0  0  0  0  0  0  0  0  0  0  0  0
  -22.3127   -5.1838  -22.9485 H   0  0  0  0  0  0  0  0  0  0  0  0
  -18.7609   -7.5081  -34.7493 H   0  0  0  0  0  0  0  0  0  0  0  0
  -20.4705   -7.9117  -35.0421 H   0  0  0  0  0  0  0  0  0  0  0  0
  -19.5477   -7.0693  -36.2856 H   0  0  0  0  0  0  0  0  0  0  0  0
  -23.4337   -6.3828  -25.0478 H   0  0  0  0  0  0  0  0  0  0  0  0
  -25.0466   -5.6674  -25.2321 H   0  0  0  0  0  0  0  0  0  0  0  0
  -24.4266   -6.0527  -23.6150 H   0  0  0  0  0  0  0  0  0  0  0  0
  -19.9125   -5.5463  -23.0748 H   0  0  0  0  0  0  0  0  0  0  0  0
  -19.9440   -3.8905  -22.4389 H   0  0  0  0  0  0  0  0  0  0  0  0
  -18.8877   -4.2959  -23.8055 H   0  0  0  0  0  0  0  0  0  0  0  0
  -17.0333   -3.0574  -27.0026 H   0  0  0  0  0  0  0  0  0  0  0  0
  -16.8302   -6.8021  -25.4047 H   0  0  0  0  0  0  0  0  0  0  0  0
  -23.2634   -3.2911  -22.1871 H   0  0  0  0  0  0  0  0  0  0  0  0
  1  2  2  0  0  0  0
  1  3  1  0  0  0  0
  2  5  1  0  0  0  0
  2  7  1  0  0  0  0
  3  4  2  0  0  0  0
  3 13  1  0  0  0  0
  4  6  1  0  0  0  0
  4 28  1  0  0  0  0
  5  6  2  0  0  0  0
  5 32  1  0  0  0  0
  6 35  1  0  0  0  0
  7  8  1  0  0  0  0
  7 23  2  0  0  0  0
  8 24  2  0  0  0  0
  8 33  1  0  0  0  0
  9 20  1  0  0  0  0
  9 25  2  0  0  0  0
  9 33  1  0  0  0  0
 10 19  1  0  0  0  0
 10 26  1  0  0  0  0
 10 29  2  0  0  0  0
 11 19  1  0  0  0  0
 11 27  1  0  0  0  0
 11 30  2  0  0  0  0
 12 26  1  0  0  0  0
 12 27  1  0  0  0  0
 12 31  2  0  0  0  0
 13 19  1  0  0  0  0
 14 15  1  0  0  0  0
 14 28  1  0  0  0  0
 15 18  1  0  0  0  0
 15 21  1  0  0  0  0
 16 17  1  0  0  0  0
 16 18  1  0  0  0  0
 16 22  1  0  0  0  0
 17 19  1  0  0  0  0
 17 28  1  0  0  0  0
 18 34  1  0  0  0  0
 23 32  1  0  0  0  0
 24 25  1  0  0  0  0
  1 36  1  0  0  0  0
 13 37  1  0  0  0  0
 13 38  1  0  0  0  0
 14 39  1  0  0  0  0
 14 40  1  0  0  0  0
 15 41  1  0  0  0  0
 16 42  1  0  0  0  0
 17 43  1  0  0  0  0
 18 44  1  0  0  0  0
 20 45  1  0  0  0  0
 20 46  1  0  0  0  0
 20 47  1  0  0  0  0
 21 48  1  0  0  0  0
 21 49  1  0  0  0  0
 21 50  1  0  0  0  0
 22 51  1  0  0  0  0
 22 52  1  0  0  0  0
 22 53  1  0  0  0  0
 26 54  1  0  0  0  0
 27 55  1  0  0  0  0
 34 56  1  0  0  0  0
M  END
> <SMILES>
C[C@@H]1CN2[C@H]([C@H](C)[C@H]1O)C1(Cc3cc4c(noc4c(c32)F)-c2nnc(o2)C)C(=O)NC(=O)NC1=O

> <FORMATTED_ID>
H3D-008489

> <MOLFORMULA>
C22H21FN6O6

> <Exact Mass>
484.15

> <XLogP>
0.9

> <TPSA_NOPS>
164.3

> <s_m_source_file>
ligprep_h3d.sdf

> <i_m_source_file_index>
1246

> <i_lp_mmshare_version>
55123

> <i_f3d_flags>
0

> <s_epik_input>
Tz1DMVtOSF1DKD1PKVtOSF1DKD1PKUMxMltDQEBIXTNOKFtDSDJdW0NAQEhdKFtDSDNdKVtDQEhdKFtPSF0pW0NASF0zW0NIM10pYzRjKFtDSDJdMilbY0hdYzVjKGM0RilvbmM1LWM2bm5jKG82KVtDSDNd

> <s_epik_cmdline>
J2VwaWtfcHl0aG9uJywgJy1waHQnLCAnMC41JywgJy1waCcsICc3LjUnLCAnLXRuJywgJzgnLCAnLW1hJywgJzUwMCcsICctaW1hZScsICc8aW5maWxlLm1hZT4nLCAnLW9tYWUnLCAnPG91dGZpbGUubWFlPic=

> <r_lp_tautomer_probability>
1

> <r_epik_Ionization_Penalty>
0.24985

> <r_epik_Ionization_Penalty_Charging>
0

> <r_epik_Ionization_Penalty_Neutral>
0.24985

> <r_epik_State_Penalty>
0.241148

> <r_epik_Charging_Adjusted_Penalty>
0.241148

> <i_epik_Tot_Q>
0

> <i_epik_Tot_abs_Q>
0

> <s_lp_Force_Field>
S-OPLS

> <r_lp_Energy>
50.4059

> <b_lp_Chiralities_Consistent>
1

> <s_lp_Variant>
ligprep_h3d.sdf:1246-1

> <ROCS_ShapeQuery>
_7L13

> <ROCS_TanimotoCombo>
0.738 

> <ROCS_ShapeTanimoto>
0.635 

> <ROCS_ColorTanimoto>
0.103 

> <ROCS_RefTversky>
0.779 

> <ROCS_RefColorTversky>
0.252 

> <ROCS_RefTverskyCombo>
1.031 

> <ROCS_FitTversky>
0.776 

> <ROCS_FitColorTversky>
0.148 

> <ROCS_FitTverskyCombo>
0.924 

> <ROCS_ColorScore>
-2.363

> <ROCS_Overlap>
1293.060

> <ROCS_Rank>
384                 

$$$$
ligprep_h3d.sdf:815_71
  -OEChem-08212117123D

 63 68  0     1  0  0  0  0  0999 V2000
  -20.8689   -5.0401  -29.4919 C   0  0  0  0  0  0  0  0  0  0  0  0
  -21.6831   -4.3180  -30.3667 C   0  0  0  0  0  0  0  0  0  0  0  0
  -21.0075   -4.8270  -28.0986 C   0  0  0  0  0  0  0  0  0  0  0  0
  -21.9677   -3.9404  -27.5569 C   0  0  0  0  0  0  0  0  0  0  0  0
  -22.5921   -3.4305  -29.8344 C   0  0  0  0  0  0  0  0  0  0  0  0
  -22.7656   -3.2083  -28.4680 C   0  0  0  0  0  0  0  0  0  0  0  0
  -21.8753   -4.2023  -31.7559 C   0  0  0  0  0  0  0  0  0  0  0  0
  -18.9259   -3.6617  -26.1499 C   0  0  0  0  0  0  0  0  0  0  0  0
  -19.1369   -5.9618  -25.0049 C   0  0  0  0  0  0  0  0  0  0  0  0
  -16.9231   -5.0532  -25.6769 C   0  0  0  0  0  0  0  0  0  0  0  0
  -20.0992   -5.6072  -27.1861 C   0  0  0  0  0  0  0  0  0  0  0  0
  -19.9339   -5.5344  -34.5977 C   0  0  0  0  0  0  0  0  0  0  0  0
  -20.2820   -4.3536  -33.6899 C   0  0  0  0  0  0  0  0  0  0  0  0
  -21.1364   -6.4013  -32.7176 C   0  0  0  0  0  0  0  0  0  0  0  0
  -23.1147   -2.8911  -25.6162 C   0  0  0  0  0  0  0  0  0  0  0  0
  -21.1834   -4.4625  -25.2125 C   0  0  2  0  0  0  0  0  0  0  0  0
  -19.9542   -6.7049  -33.6313 C   0  0  1  0  0  0  0  0  0  0  0  0
  -23.4772   -3.2467  -24.1715 C   0  0  1  0  0  0  0  0  0  0  0  0
  -21.0840   -3.5381  -23.9641 C   0  0  2  0  0  0  0  0  0  0  0  0
  -19.8217   -4.8748  -25.8496 C   0  0  0  0  0  0  0  0  0  0  0  0
  -24.3944   -4.4646  -24.0779 C   0  0  0  0  0  0  0  0  0  0  0  0
  -20.1110   -3.9794  -22.8773 C   0  0  0  0  0  0  0  0  0  0  0  0
  -19.0437   -8.3272  -35.2981 C   0  0  0  0  0  0  0  0  0  0  0  0
  -22.8251   -3.3139  -32.0639 N   0  0  0  0  0  0  0  0  0  0  0  0
  -17.5649   -3.9232  -26.1628 N   0  0  0  0  0  0  0  0  0  0  0  0
  -17.7542   -6.0002  -25.0957 N   0  0  0  0  0  0  0  0  0  0  0  0
  -22.0990   -3.7934  -26.1740 N   0  0  3  0  0  0  0  0  0  0  0  0
  -21.1400   -4.9396  -32.6593 N   0  0  0  0  0  0  0  0  0  0  0  0
  -20.1357   -7.9831  -34.3401 N   0  3  0  0  0  0  0  0  0  0  0  0
  -19.3691   -2.5467  -26.4248 O   0  0  0  0  0  0  0  0  0  0  0  0
  -19.7657   -6.8018  -24.3598 O   0  0  0  0  0  0  0  0  0  0  0  0
  -15.6991   -5.1877  -25.7214 O   0  0  0  0  0  0  0  0  0  0  0  0
  -23.2761   -2.8247  -30.8434 O   0  0  0  0  0  0  0  0  0  0  0  0
  -22.3586   -3.4543  -23.3146 O   0  0  0  0  0  0  0  0  0  0  0  0
  -23.6083   -2.2379  -28.0953 F   0  0  0  0  0  0  0  0  0  0  0  0
  -20.1361   -5.7458  -29.8729 H   0  0  0  0  0  0  0  0  0  0  0  0
  -20.5731   -6.5818  -27.0054 H   0  0  0  0  0  0  0  0  0  0  0  0
  -19.1501   -5.8102  -27.7010 H   0  0  0  0  0  0  0  0  0  0  0  0
  -20.7026   -5.6417  -35.3732 H   0  0  0  0  0  0  0  0  0  0  0  0
  -18.9628   -5.4080  -35.0854 H   0  0  0  0  0  0  0  0  0  0  0  0
  -19.3794   -3.9402  -33.2240 H   0  0  0  0  0  0  0  0  0  0  0  0
  -20.7877   -3.5590  -34.2503 H   0  0  0  0  0  0  0  0  0  0  0  0
  -22.0870   -6.7493  -33.1416 H   0  0  0  0  0  0  0  0  0  0  0  0
  -21.0033   -6.8508  -31.7268 H   0  0  0  0  0  0  0  0  0  0  0  0
  -24.0173   -2.9767  -26.2560 H   0  0  0  0  0  0  0  0  0  0  0  0
  -22.8644   -1.8194  -25.6394 H   0  0  0  0  0  0  0  0  0  0  0  0
  -21.7122   -5.3772  -24.9027 H   0  0  0  0  0  0  0  0  0  0  0  0
  -19.0185   -6.7717  -33.0648 H   0  0  0  0  0  0  0  0  0  0  0  0
  -24.0789   -2.3786  -23.7292 H   0  0  0  0  0  0  0  0  0  0  0  0
  -20.7951   -2.5124  -24.2582 H   0  0  0  0  0  0  0  0  0  0  0  0
  -23.8911   -5.3428  -24.4827 H   0  0  0  0  0  0  0  0  0  0  0  0
  -25.3082   -4.2880  -24.6456 H   0  0  0  0  0  0  0  0  0  0  0  0
  -24.6560   -4.6555  -23.0370 H   0  0  0  0  0  0  0  0  0  0  0  0
  -20.3522   -4.9905  -22.5492 H   0  0  0  0  0  0  0  0  0  0  0  0
  -20.1757   -3.3055  -22.0232 H   0  0  0  0  0  0  0  0  0  0  0  0
  -19.0913   -3.9661  -23.2623 H   0  0  0  0  0  0  0  0  0  0  0  0
  -18.9571   -7.5078  -36.0141 H   0  0  0  0  0  0  0  0  0  0  0  0
  -18.1221   -8.4472  -34.7253 H   0  0  0  0  0  0  0  0  0  0  0  0
  -19.3189   -9.2578  -35.7982 H   0  0  0  0  0  0  0  0  0  0  0  0
  -16.9717   -3.2085  -26.5734 H   0  0  0  0  0  0  0  0  0  0  0  0
  -17.2939   -6.7833  -24.6405 H   0  0  0  0  0  0  0  0  0  0  0  0
  -20.2255   -8.7541  -33.6570 H   0  0  0  0  0  0  0  0  0  0  0  0
  -21.0319   -7.9747  -34.8558 H   0  0  0  0  0  0  0  0  0  0  0  0
  1  2  2  0  0  0  0
  1  3  1  0  0  0  0
  2  5  1  0  0  0  0
  2  7  1  0  0  0  0
  3  4  2  0  0  0  0
  3 11  1  0  0  0  0
  4  6  1  0  0  0  0
  4 27  1  0  0  0  0
  5  6  2  0  0  0  0
  5 33  1  0  0  0  0
  6 35  1  0  0  0  0
  7 24  2  0  0  0  0
  7 28  1  0  0  0  0
  8 20  1  0  0  0  0
  8 25  1  0  0  0  0
  8 30  2  0  0  0  0
  9 20  1  0  0  0  0
  9 26  1  0  0  0  0
  9 31  2  0  0  0  0
 10 25  1  0  0  0  0
 10 26  1  0  0  0  0
 10 32  2  0  0  0  0
 11 20  1  0  0  0  0
 12 13  1  0  0  0  0
 12 17  1  0  0  0  0
 13 28  1  0  0  0  0
 14 17  1  0  0  0  0
 14 28  1  0  0  0  0
 15 18  1  0  0  0  0
 15 27  1  0  0  0  0
 16 19  1  0  0  0  0
 16 20  1  0  0  0  0
 16 27  1  0  0  0  0
 17 29  1  0  0  0  0
 18 21  1  0  0  0  0
 18 34  1  0  0  0  0
 19 22  1  0  0  0  0
 19 34  1  0  0  0  0
 23 29  1  0  0  0  0
 24 33  1  0  0  0  0
  1 36  1  0  0  0  0
 11 37  1  0  0  0  0
 11 38  1  0  0  0  0
 12 39  1  0  0  0  0
 12 40  1  0  0  0  0
 13 41  1  0  0  0  0
 13 42  1  0  0  0  0
 14 43  1  0  0  0  0
 14 44  1  0  0  0  0
 15 45  1  0  0  0  0
 15 46  1  0  0  0  0
 16 47  1  0  0  0  0
 17 48  1  0  0  0  0
 18 49  1  0  0  0  0
 19 50  1  0  0  0  0
 21 51  1  0  0  0  0
 21 52  1  0  0  0  0
 21 53  1  0  0  0  0
 22 54  1  0  0  0  0
 22 55  1  0  0  0  0
 22 56  1  0  0  0  0
 23 57  1  0  0  0  0
 23 58  1  0  0  0  0
 23 59  1  0  0  0  0
 25 60  1  0  0  0  0
 26 61  1  0  0  0  0
 29 62  1  0  0  0  0
 29 63  1  0  0  0  0
M  CHG  1  29   1
M  END
> <SMILES>
CN[C@H]1CCN(C1)c1noc2c(c3c(cc12)CC1([C@H]2[C@H](C)O[C@H](C)CN23)C(=O)NC(=O)NC1=O)F

> <FORMATTED_ID>
H3D-005494

> <MOLFORMULA>
C23H27FN6O5

> <Exact Mass>
486.2

> <XLogP>
0.24

> <TPSA_NOPS>
129.3

> <s_m_source_file>
ligprep_h3d.sdf

> <i_m_source_file_index>
815

> <i_lp_mmshare_version>
55123

> <i_f3d_flags>
0

> <s_epik_input>
W0NIM11bTkhdW0NASF0xW0NIMl1bQ0gyXU4oW0NIMl0xKWMybm9jKGMzRiljMltjSF1jKFtDSDJdNCljM04oW0NIMl1bQ0BASF0oW0NIM10pT1tDQEhdNVtDSDNdKVtDQEhdNUM0NkMoPU8pW05IXUMoPU8pW05IXUM2PU8=

> <s_epik_cmdline>
J2VwaWtfcHl0aG9uJywgJy1waHQnLCAnMC41JywgJy1waCcsICc3LjUnLCAnLXRuJywgJzgnLCAnLW1hJywgJzUwMCcsICctaW1hZScsICc8aW5maWxlLm1hZT4nLCAnLW9tYWUnLCAnPG91dGZpbGUubWFlPic=

> <r_lp_tautomer_probability>
1

> <r_epik_Ionization_Penalty>
0.390477

> <r_epik_Ionization_Penalty_Charging>
0.0213523

> <r_epik_Ionization_Penalty_Neutral>
0.369125

> <r_epik_State_Penalty>
0.383614

> <r_epik_Charging_Adjusted_Penalty>
0.404966

> <i_epik_Tot_Q>
1

> <i_epik_Tot_abs_Q>
1

> <s_lp_Force_Field>
S-OPLS

> <r_lp_Energy>
54.3948

> <b_lp_Chiralities_Consistent>
1

> <s_lp_Variant>
ligprep_h3d.sdf:815-1

> <ROCS_ShapeQuery>
_7L13

> <ROCS_TanimotoCombo>
0.769 

> <ROCS_ShapeTanimoto>
0.641 

> <ROCS_ColorTanimoto>
0.129 

> <ROCS_RefTversky>
0.778 

> <ROCS_RefColorTversky>
0.295 

> <ROCS_RefTverskyCombo>
1.073 

> <ROCS_FitTversky>
0.783 

> <ROCS_FitColorTversky>
0.186 

> <ROCS_FitTverskyCombo>
0.970 

> <ROCS_ColorScore>
-2.742

> <ROCS_Overlap>
1292.282

> <ROCS_Rank>
385                 

$$$$
ligprep_h3d.sdf:449_409
  -OEChem-08212117123D

 57 62  0     1  0  0  0  0  0999 V2000
  -21.0211   -5.1452  -29.5392 C   0  0  0  0  0  0  0  0  0  0  0  0
  -21.7120   -4.4193  -30.5129 C   0  0  0  0  0  0  0  0  0  0  0  0
  -21.2372   -4.8332  -28.1760 C   0  0  0  0  0  0  0  0  0  0  0  0
  -22.1611   -3.8408  -27.7667 C   0  0  0  0  0  0  0  0  0  0  0  0
  -22.5806   -3.4301  -30.1048 C   0  0  0  0  0  0  0  0  0  0  0  0
  -22.8312   -3.1063  -28.7723 C   0  0  0  0  0  0  0  0  0  0  0  0
  -21.7955   -4.3792  -31.9173 C   0  0  0  0  0  0  0  0  0  0  0  0
  -19.5253   -5.7718  -24.8778 C   0  0  0  0  0  0  0  0  0  0  0  0
  -19.2950   -3.6048  -26.1927 C   0  0  0  0  0  0  0  0  0  0  0  0
  -17.3233   -5.0409  -25.7826 C   0  0  0  0  0  0  0  0  0  0  0  0
  -20.1981   -6.1940  -32.3794 C   0  0  0  0  0  0  0  0  0  0  0  0
  -24.9860   -5.4679  -24.0108 C   0  0  0  0  0  0  0  0  0  0  0  0
  -20.4583   -5.6167  -27.1478 C   0  0  0  0  0  0  0  0  0  0  0  0
  -23.5653   -2.8294  -25.9843 C   0  0  0  0  0  0  0  0  0  0  0  0
  -24.0291   -3.2587  -24.5932 C   0  0  0  0  0  0  0  0  0  0  0  0
  -22.5506   -5.2603  -24.6610 C   0  0  0  0  0  0  0  0  0  0  0  0
  -20.6540   -6.5426  -34.5841 C   0  0  0  0  0  0  0  0  0  0  0  0
  -21.5957   -4.2553  -25.3442 C   0  0  1  0  0  0  0  0  0  0  0  0
  -21.1734   -5.1671  -34.2137 C   0  0  2  0  0  0  0  0  0  0  0  0
  -20.2242   -4.8017  -25.8562 C   0  0  0  0  0  0  0  0  0  0  0  0
  -25.9668   -4.7718  -23.0986 C   0  0  0  0  0  0  0  0  0  0  0  0
  -20.3062   -4.0561  -34.8018 C   0  0  0  0  0  0  0  0  0  0  0  0
  -22.6441   -3.4410  -32.3484 N   0  0  0  0  0  0  0  0  0  0  0  0
  -18.1511   -5.8864  -25.0557 N   0  0  0  0  0  0  0  0  0  0  0  0
  -17.9521   -3.9250  -26.3140 N   0  0  0  0  0  0  0  0  0  0  0  0
  -22.3801   -3.5881  -26.4109 N   0  0  3  0  0  0  0  0  0  0  0  0
  -21.0924   -5.2031  -32.7742 N   0  0  0  0  0  0  0  0  0  0  0  0
  -23.8959   -4.7061  -24.4335 N   0  0  0  0  0  0  0  0  0  0  0  0
  -20.1116   -6.4768  -24.0597 O   0  0  0  0  0  0  0  0  0  0  0  0
  -19.7003   -2.4574  -26.3781 O   0  0  0  0  0  0  0  0  0  0  0  0
  -16.1125   -5.2368  -25.8968 O   0  0  0  0  0  0  0  0  0  0  0  0
  -19.7837   -6.4275  -31.2515 O   0  0  0  0  0  0  0  0  0  0  0  0
  -25.1781   -6.6437  -24.3282 O   0  0  0  0  0  0  0  0  0  0  0  0
  -23.1386   -2.8397  -31.1969 O   0  0  0  0  0  0  0  0  0  0  0  0
  -19.8120   -6.9147  -33.4870 O   0  0  0  0  0  0  0  0  0  0  0  0
  -23.6679   -2.0921  -28.5342 F   0  0  0  0  0  0  0  0  0  0  0  0
  -20.3313   -5.9326  -29.8250 H   0  0  0  0  0  0  0  0  0  0  0  0
  -20.9921   -6.5390  -26.9165 H   0  0  0  0  0  0  0  0  0  0  0  0
  -19.5054   -5.8901  -27.6045 H   0  0  0  0  0  0  0  0  0  0  0  0
  -24.4208   -3.0490  -26.6145 H   0  0  0  0  0  0  0  0  0  0  0  0
  -23.3484   -1.7642  -25.9897 H   0  0  0  0  0  0  0  0  0  0  0  0
  -23.4560   -2.7278  -23.8301 H   0  0  0  0  0  0  0  0  0  0  0  0
  -25.0841   -3.0080  -24.4451 H   0  0  0  0  0  0  0  0  0  0  0  0
  -22.6922   -6.1676  -25.2737 H   0  0  0  0  0  0  0  0  0  0  0  0
  -22.1211   -5.6161  -23.7141 H   0  0  0  0  0  0  0  0  0  0  0  0
  -21.4594   -7.2812  -34.6605 H   0  0  0  0  0  0  0  0  0  0  0  0
  -20.0704   -6.5531  -35.5093 H   0  0  0  0  0  0  0  0  0  0  0  0
  -21.4177   -3.4447  -24.5951 H   0  0  0  0  0  0  0  0  0  0  0  0
  -22.2127   -5.0366  -34.5347 H   0  0  0  0  0  0  0  0  0  0  0  0
  -26.7331   -4.2940  -23.6999 H   0  0  0  0  0  0  0  0  0  0  0  0
  -25.4388   -4.0277  -22.5108 H   0  0  0  0  0  0  0  0  0  0  0  0
  -26.4174   -5.5044  -22.4368 H   0  0  0  0  0  0  0  0  0  0  0  0
  -19.2733   -4.1858  -34.4826 H   0  0  0  0  0  0  0  0  0  0  0  0
  -20.6659   -3.0869  -34.4599 H   0  0  0  0  0  0  0  0  0  0  0  0
  -20.3504   -4.0897  -35.8892 H   0  0  0  0  0  0  0  0  0  0  0  0
  -17.7030   -6.6785  -24.6023 H   0  0  0  0  0  0  0  0  0  0  0  0
  -17.3762   -3.2836  -26.8402 H   0  0  0  0  0  0  0  0  0  0  0  0
  1  2  2  0  0  0  0
  1  3  1  0  0  0  0
  2  5  1  0  0  0  0
  2  7  1  0  0  0  0
  3  4  2  0  0  0  0
  3 13  1  0  0  0  0
  4  6  1  0  0  0  0
  4 26  1  0  0  0  0
  5  6  2  0  0  0  0
  5 34  1  0  0  0  0
  6 36  1  0  0  0  0
  7 23  2  0  0  0  0
  7 27  1  0  0  0  0
  8 20  1  0  0  0  0
  8 24  1  0  0  0  0
  8 29  2  0  0  0  0
  9 20  1  0  0  0  0
  9 25  1  0  0  0  0
  9 30  2  0  0  0  0
 10 24  1  0  0  0  0
 10 25  1  0  0  0  0
 10 31  2  0  0  0  0
 11 27  1  0  0  0  0
 11 32  2  0  0  0  0
 11 35  1  0  0  0  0
 12 21  1  0  0  0  0
 12 28  1  0  0  0  0
 12 33  2  0  0  0  0
 13 20  1  0  0  0  0
 14 15  1  0  0  0  0
 14 26  1  0  0  0  0
 15 28  1  0  0  0  0
 16 18  1  0  0  0  0
 16 28  1  0  0  0  0
 17 19  1  0  0  0  0
 17 35  1  0  0  0  0
 18 20  1  0  0  0  0
 18 26  1  0  0  0  0
 19 22  1  0  0  0  0
 19 27  1  0  0  0  0
 23 34  1  0  0  0  0
  1 37  1  0  0  0  0
 13 38  1  0  0  0  0
 13 39  1  0  0  0  0
 14 40  1  0  0  0  0
 14 41  1  0  0  0  0
 15 42  1  0  0  0  0
 15 43  1  0  0  0  0
 16 44  1  0  0  0  0
 16 45  1  0  0  0  0
 17 46  1  0  0  0  0
 17 47  1  0  0  0  0
 18 48  1  0  0  0  0
 19 49  1  0  0  0  0
 21 50  1  0  0  0  0
 21 51  1  0  0  0  0
 21 52  1  0  0  0  0
 22 53  1  0  0  0  0
 22 54  1  0  0  0  0
 22 55  1  0  0  0  0
 24 56  1  0  0  0  0
 25 57  1  0  0  0  0
M  END
> <SMILES>
C[C@H]1COC(=O)N1c1noc2c(c3c(cc12)CC1(C2CN(CCN23)C(=O)C)C(=O)NC(=O)NC1=O)F

> <FORMATTED_ID>
H3D-003969

> <MOLFORMULA>
C22H21FN6O7

> <Exact Mass>
500.15

> <XLogP>
-0.03

> <TPSA_NOPS>
154.7

> <s_m_source_file>
ligprep_h3d.sdf

> <i_m_source_file_index>
449

> <i_lp_mmshare_version>
55123

> <i_f3d_flags>
0

> <s_epik_input>
W0NIM11bQ0BIXTFbQ0gyXU9DKD1PKU4xYzJub2MoYzNGKWMyW2NIXWMoW0NIMl00KWMzTihbQ0gyXVtDSDJdTihbQ0gyXTUpQyg9TylbQ0gzXSlbQ0BASF01QzQ2Qyg9TylbTkhdQyg9TylbTkhdQzY9Tw==

> <s_epik_cmdline>
J2VwaWtfcHl0aG9uJywgJy1waHQnLCAnMC41JywgJy1waCcsICc3LjUnLCAnLXRuJywgJzgnLCAnLW1hJywgJzUwMCcsICctaW1hZScsICc8aW5maWxlLm1hZT4nLCAnLW9tYWUnLCAnPG91dGZpbGUubWFlPic=

> <r_lp_tautomer_probability>
1

> <r_epik_Ionization_Penalty>
0.371615

> <r_epik_Ionization_Penalty_Charging>
0

> <r_epik_Ionization_Penalty_Neutral>
0.371615

> <r_epik_State_Penalty>
0.36909

> <r_epik_Charging_Adjusted_Penalty>
0.36909

> <i_epik_Tot_Q>
0

> <i_epik_Tot_abs_Q>
0

> <s_epik_Chemistry_Notes>
This compound has an ester and may undergo hydrolysis at high or low pH.

> <s_lp_Force_Field>
S-OPLS

> <r_lp_Energy>
46.4021

> <b_lp_Chiralities_Consistent>
1

> <s_lp_Variant>
ligprep_h3d.sdf:449-1

> <ROCS_ShapeQuery>
_7L13

> <ROCS_TanimotoCombo>
0.715 

> <ROCS_ShapeTanimoto>
0.620 

> <ROCS_ColorTanimoto>
0.095 

> <ROCS_RefTversky>
0.778 

> <ROCS_RefColorTversky>
0.216 

> <ROCS_RefTverskyCombo>
0.995 

> <ROCS_FitTversky>
0.753 

> <ROCS_FitColorTversky>
0.145 

> <ROCS_FitTverskyCombo>
0.899 

> <ROCS_ColorScore>
-2.002

> <ROCS_Overlap>
1294.893

> <ROCS_Rank>
386                 

$$$$
ligprep_h3d.sdf:509_545
  -OEChem-08212117123D

 61 66  0     1  0  0  0  0  0999 V2000
  -20.9578   -5.0794  -29.5579 C   0  0  0  0  0  0  0  0  0  0  0  0
  -21.6993   -4.3817  -30.5149 C   0  0  0  0  0  0  0  0  0  0  0  0
  -21.1853   -4.8098  -28.1868 C   0  0  0  0  0  0  0  0  0  0  0  0
  -22.1655   -3.8839  -27.7552 C   0  0  0  0  0  0  0  0  0  0  0  0
  -22.6294   -3.4609  -30.0839 C   0  0  0  0  0  0  0  0  0  0  0  0
  -22.8921   -3.1798  -28.7443 C   0  0  0  0  0  0  0  0  0  0  0  0
  -21.7940   -4.3214  -31.9178 C   0  0  0  0  0  0  0  0  0  0  0  0
  -19.3086   -3.5890  -26.1052 C   0  0  0  0  0  0  0  0  0  0  0  0
  -19.5030   -5.8004  -24.8704 C   0  0  0  0  0  0  0  0  0  0  0  0
  -17.3060   -4.9919  -25.7104 C   0  0  0  0  0  0  0  0  0  0  0  0
  -20.3565   -5.5765  -27.1846 C   0  0  0  0  0  0  0  0  0  0  0  0
  -19.9856   -7.0017  -33.6821 C   0  0  0  0  0  0  0  0  0  0  0  0
  -20.5246   -6.4369  -32.3723 C   0  0  0  0  0  0  0  0  0  0  0  0
  -20.5676   -4.7133  -34.0694 C   0  0  0  0  0  0  0  0  0  0  0  0
  -23.6026   -2.9544  -25.9587 C   0  0  0  0  0  0  0  0  0  0  0  0
  -21.6068   -4.3329  -25.3371 C   0  0  1  0  0  0  0  0  0  0  0  0
  -19.5208   -5.7645  -34.4350 C   0  0  2  0  0  0  0  0  0  0  0  0
  -23.8900   -3.2377  -24.4816 C   0  0  1  0  0  0  0  0  0  0  0  0
  -22.5895   -5.2811  -24.5865 C   0  0  2  0  0  0  0  0  0  0  0  0
  -20.2115   -4.8291  -25.8406 C   0  0  0  0  0  0  0  0  0  0  0  0
  -25.2785   -2.7462  -24.0909 C   0  0  0  0  0  0  0  0  0  0  0  0
  -22.9620   -6.5692  -25.3121 C   0  0  0  0  0  0  0  0  0  0  0  0
  -18.9932   -7.3124  -36.1120 C   0  0  0  0  0  0  0  0  0  0  0  0
  -22.7063   -3.4346  -32.3269 N   0  0  0  0  0  0  0  0  0  0  0  0
  -17.9518   -3.8626  -26.1928 N   0  0  0  0  0  0  0  0  0  0  0  0
  -18.1273   -5.8947  -25.0481 N   0  0  0  0  0  0  0  0  0  0  0  0
  -22.3936   -3.6649  -26.3963 N   0  0  3  0  0  0  0  0  0  0  0  0
  -21.0152   -5.1105  -32.7376 N   0  0  0  0  0  0  0  0  0  0  0  0
  -19.7450   -2.4504  -26.2744 O   0  0  0  0  0  0  0  0  0  0  0  0
  -20.0769   -6.5035  -24.0428 O   0  0  0  0  0  0  0  0  0  0  0  0
  -16.0887   -5.1526  -25.8087 O   0  0  0  0  0  0  0  0  0  0  0  0
  -23.2333   -2.8899  -31.1618 O   0  0  0  0  0  0  0  0  0  0  0  0
  -23.8482   -4.6466  -24.2609 O   0  0  0  0  0  0  0  0  0  0  0  0
  -19.4886   -6.0120  -35.8265 O   0  0  0  0  0  0  0  0  0  0  0  0
  -23.8558   -2.2974  -28.4479 F   0  0  0  0  0  0  0  0  0  0  0  0
  -20.2292   -5.8278  -29.8596 H   0  0  0  0  0  0  0  0  0  0  0  0
  -20.8100   -6.5671  -27.0170 H   0  0  0  0  0  0  0  0  0  0  0  0
  -19.3696   -5.7638  -27.6387 H   0  0  0  0  0  0  0  0  0  0  0  0
  -19.1324   -7.6569  -33.4756 H   0  0  0  0  0  0  0  0  0  0  0  0
  -20.7517   -7.5670  -34.2190 H   0  0  0  0  0  0  0  0  0  0  0  0
  -21.3553   -7.0457  -31.9970 H   0  0  0  0  0  0  0  0  0  0  0  0
  -19.7434   -6.3926  -31.6060 H   0  0  0  0  0  0  0  0  0  0  0  0
  -20.1101   -3.7184  -34.0105 H   0  0  0  0  0  0  0  0  0  0  0  0
  -21.4009   -4.6903  -34.7814 H   0  0  0  0  0  0  0  0  0  0  0  0
  -24.4452   -3.2658  -26.5905 H   0  0  0  0  0  0  0  0  0  0  0  0
  -23.4841   -1.8665  -26.0410 H   0  0  0  0  0  0  0  0  0  0  0  0
  -21.4150   -3.4987  -24.6197 H   0  0  0  0  0  0  0  0  0  0  0  0
  -18.5029   -5.4610  -34.1141 H   0  0  0  0  0  0  0  0  0  0  0  0
  -23.1522   -2.7618  -23.8501 H   0  0  0  0  0  0  0  0  0  0  0  0
  -22.1551   -5.5604  -23.6378 H   0  0  0  0  0  0  0  0  0  0  0  0
  -26.0312   -3.2193  -24.7210 H   0  0  0  0  0  0  0  0  0  0  0  0
  -25.3392   -1.6656  -24.2166 H   0  0  0  0  0  0  0  0  0  0  0  0
  -25.4811   -2.9942  -23.0494 H   0  0  0  0  0  0  0  0  0  0  0  0
  -23.4063   -6.3356  -26.2791 H   0  0  0  0  0  0  0  0  0  0  0  0
  -23.6800   -7.1350  -24.7192 H   0  0  0  0  0  0  0  0  0  0  0  0
  -22.0721   -7.1782  -25.4681 H   0  0  0  0  0  0  0  0  0  0  0  0
  -18.9818   -7.4695  -37.1933 H   0  0  0  0  0  0  0  0  0  0  0  0
  -19.6297   -8.0594  -35.6311 H   0  0  0  0  0  0  0  0  0  0  0  0
  -17.9759   -7.3985  -35.7229 H   0  0  0  0  0  0  0  0  0  0  0  0
  -17.3775   -3.1713  -26.6533 H   0  0  0  0  0  0  0  0  0  0  0  0
  -17.6658   -6.6707  -24.5890 H   0  0  0  0  0  0  0  0  0  0  0  0
  1  2  2  0  0  0  0
  1  3  1  0  0  0  0
  2  5  1  0  0  0  0
  2  7  1  0  0  0  0
  3  4  2  0  0  0  0
  3 11  1  0  0  0  0
  4  6  1  0  0  0  0
  4 27  1  0  0  0  0
  5  6  2  0  0  0  0
  5 32  1  0  0  0  0
  6 35  1  0  0  0  0
  7 24  2  0  0  0  0
  7 28  1  0  0  0  0
  8 20  1  0  0  0  0
  8 25  1  0  0  0  0
  8 29  2  0  0  0  0
  9 20  1  0  0  0  0
  9 26  1  0  0  0  0
  9 30  2  0  0  0  0
 10 25  1  0  0  0  0
 10 26  1  0  0  0  0
 10 31  2  0  0  0  0
 11 20  1  0  0  0  0
 12 13  1  0  0  0  0
 12 17  1  0  0  0  0
 13 28  1  0  0  0  0
 14 17  1  0  0  0  0
 14 28  1  0  0  0  0
 15 18  1  0  0  0  0
 15 27  1  0  0  0  0
 16 19  1  0  0  0  0
 16 20  1  0  0  0  0
 16 27  1  0  0  0  0
 17 34  1  0  0  0  0
 18 21  1  0  0  0  0
 18 33  1  0  0  0  0
 19 22  1  0  0  0  0
 19 33  1  0  0  0  0
 23 34  1  0  0  0  0
 24 32  1  0  0  0  0
  1 36  1  0  0  0  0
 11 37  1  0  0  0  0
 11 38  1  0  0  0  0
 12 39  1  0  0  0  0
 12 40  1  0  0  0  0
 13 41  1  0  0  0  0
 13 42  1  0  0  0  0
 14 43  1  0  0  0  0
 14 44  1  0  0  0  0
 15 45  1  0  0  0  0
 15 46  1  0  0  0  0
 16 47  1  0  0  0  0
 17 48  1  0  0  0  0
 18 49  1  0  0  0  0
 19 50  1  0  0  0  0
 21 51  1  0  0  0  0
 21 52  1  0  0  0  0
 21 53  1  0  0  0  0
 22 54  1  0  0  0  0
 22 55  1  0  0  0  0
 22 56  1  0  0  0  0
 23 57  1  0  0  0  0
 23 58  1  0  0  0  0
 23 59  1  0  0  0  0
 25 60  1  0  0  0  0
 26 61  1  0  0  0  0
M  END
> <SMILES>
CO[C@@H]1CCN(C1)c1noc2c(c3c(cc12)CC1(C2C(C)OC(C)CN23)C(=O)NC(=O)NC1=O)F

> <FORMATTED_ID>
H3D-004137

> <MOLFORMULA>
C23H26FN5O6

> <Exact Mass>
487.19

> <XLogP>
0.55

> <TPSA_NOPS>
126.5

> <s_m_source_file>
ligprep_h3d.sdf

> <i_m_source_file_index>
509

> <i_lp_mmshare_version>
55123

> <i_f3d_flags>
0

> <s_epik_input>
W0NIM11PW0NAQEhdMVtDSDJdW0NIMl1OKFtDSDJdMSljMm5vYyhjM0YpYzJbY0hdYyhbQ0gyXTQpYzNOKFtDSDJdW0NAQEhdKFtDSDNdKU9bQ0BIXTVbQ0gzXSlbQ0BASF01QzQ2Qyg9TylbTkhdQyg9TylbTkhdQzY9Tw==

> <s_epik_cmdline>
J2VwaWtfcHl0aG9uJywgJy1waHQnLCAnMC41JywgJy1waCcsICc3LjUnLCAnLXRuJywgJzgnLCAnLW1hJywgJzUwMCcsICctaW1hZScsICc8aW5maWxlLm1hZT4nLCAnLW9tYWUnLCAnPG91dGZpbGUubWFlPic=

> <r_lp_tautomer_probability>
1

> <r_epik_Ionization_Penalty>
0.36913

> <r_epik_Ionization_Penalty_Charging>
0

> <r_epik_Ionization_Penalty_Neutral>
0.36913

> <r_epik_State_Penalty>
0.366447

> <r_epik_Charging_Adjusted_Penalty>
0.366447

> <i_epik_Tot_Q>
0

> <i_epik_Tot_abs_Q>
0

> <s_lp_Force_Field>
S-OPLS

> <r_lp_Energy>
53.759

> <b_lp_Chiralities_Consistent>
1

> <s_lp_Variant>
ligprep_h3d.sdf:509-1

> <ROCS_ShapeQuery>
_7L13

> <ROCS_TanimotoCombo>
0.734 

> <ROCS_ShapeTanimoto>
0.639 

> <ROCS_ColorTanimoto>
0.095 

> <ROCS_RefTversky>
0.778 

> <ROCS_RefColorTversky>
0.217 

> <ROCS_RefTverskyCombo>
0.995 

> <ROCS_FitTversky>
0.781 

> <ROCS_FitColorTversky>
0.145 

> <ROCS_FitTverskyCombo>
0.926 

> <ROCS_ColorScore>
-2.005

> <ROCS_Overlap>
1292.229

> <ROCS_Rank>
387                 

$$$$
ligprep_h3d.sdf:1127_1549
  -OEChem-08212117123D

 75 79  0     0  0  0  0  0  0999 V2000
  -20.2460   -3.9950  -32.2558 C   0  0  0  0  0  0  0  0  0  0  0  0
  -20.5537   -6.3759  -31.9847 C   0  0  0  0  0  0  0  0  0  0  0  0
  -19.7164   -4.2083  -33.5284 C   0  0  0  0  0  0  0  0  0  0  0  0
  -20.0242   -6.5892  -33.2574 C   0  0  0  0  0  0  0  0  0  0  0  0
  -16.7516   -5.6480  -26.5600 C   0  0  0  0  0  0  0  0  0  0  0  0
  -23.1216   -4.4490  -28.7436 C   0  0  0  0  0  0  0  0  0  0  0  0
  -20.6947   -4.3783  -25.3709 C   0  0  0  0  0  0  0  0  0  0  0  0
  -16.7206   -4.2493  -26.7164 C   0  0  0  0  0  0  0  0  0  0  0  0
  -20.9335   -4.6202  -27.7645 C   0  0  0  0  0  0  0  0  0  0  0  0
  -20.6646   -5.0788  -31.4839 C   0  0  0  0  0  0  0  0  0  0  0  0
  -21.2137   -4.8575  -30.1638 C   0  0  0  0  0  0  0  0  0  0  0  0
  -19.6055   -5.5054  -34.0293 C   0  0  0  0  0  0  0  0  0  0  0  0
  -22.5812   -4.6636  -30.0140 C   0  0  0  0  0  0  0  0  0  0  0  0
  -20.3898   -4.8362  -29.0421 C   0  0  0  0  0  0  0  0  0  0  0  0
  -22.3212   -4.4228  -27.6048 C   0  0  0  0  0  0  0  0  0  0  0  0
  -20.1273   -4.5938  -26.6185 C   0  0  0  0  0  0  0  0  0  0  0  0
  -22.0615   -4.1954  -25.3144 C   0  0  0  0  0  0  0  0  0  0  0  0
  -18.0885   -5.9575  -26.5021 C   0  0  0  0  0  0  0  0  0  0  0  0
  -19.7964   -7.6635  -36.8674 C   0  0  0  0  0  0  0  0  0  0  0  0
  -22.7192   -3.9667  -24.0393 C   0  0  0  0  0  0  0  0  0  0  0  0
  -21.8999   -6.8204  -37.5534 C   0  0  0  0  0  0  0  0  0  0  0  0
  -21.2737   -5.8363  -36.5757 C   0  0  0  0  0  0  0  0  0  0  0  0
  -23.5114   -4.6756  -31.1854 C   0  0  0  0  0  0  0  0  0  0  0  0
  -18.9218   -5.0532  -29.2818 C   0  0  0  0  0  0  0  0  0  0  0  0
  -18.7664   -7.2594  -26.3453 C   0  0  0  0  0  0  0  0  0  0  0  0
  -21.2133   -9.1006  -38.4105 C   0  0  0  0  0  0  0  0  0  0  0  0
  -28.8321   -4.4559  -23.7658 C   0  0  0  0  0  0  0  0  0  0  0  0
  -19.0353   -5.7350  -35.3990 C   0  0  0  0  0  0  0  0  0  0  0  0
  -24.8346   -4.2407  -22.7199 C   0  0  0  0  0  0  0  0  0  0  0  0
  -26.2268   -4.8237  -22.8686 C   0  0  0  0  0  0  0  0  0  0  0  0
  -17.9409   -3.7077  -26.7555 N   0  0  0  0  0  0  0  0  0  0  0  0
  -22.8746   -4.2134  -26.3954 N   0  0  0  0  0  0  0  0  0  0  0  0
  -18.7512   -4.7716  -26.6230 N   0  0  0  0  0  0  0  0  0  0  0  0
  -20.9617   -7.9220  -37.6106 N   0  0  0  0  0  0  0  0  0  0  0  0
  -19.9759   -6.4024  -36.2720 N   0  0  0  0  0  0  0  0  0  0  0  0
  -24.0401   -4.4146  -23.9147 N   0  0  0  0  0  0  0  0  0  0  0  0
  -18.8182   -8.3922  -36.7606 O   0  0  0  0  0  0  0  0  0  0  0  0
  -22.1252   -3.3782  -23.1175 O   0  0  0  0  0  0  0  0  0  0  0  0
  -27.0034   -2.6044  -24.0105 O   0  0  0  0  0  0  0  0  0  0  0  0
  -26.8159   -4.6954  -25.4120 O   0  0  0  0  0  0  0  0  0  0  0  0
  -27.1475   -4.0427  -24.1570 S   0  0  0  0  0  0  0  0  0  0  0  0
  -20.3253   -2.9779  -31.8791 H   0  0  0  0  0  0  0  0  0  0  0  0
  -20.8763   -7.2310  -31.3954 H   0  0  0  0  0  0  0  0  0  0  0  0
  -19.3917   -3.3581  -34.1223 H   0  0  0  0  0  0  0  0  0  0  0  0
  -19.9420   -7.6032  -33.6400 H   0  0  0  0  0  0  0  0  0  0  0  0
  -15.9195   -6.3341  -26.4986 H   0  0  0  0  0  0  0  0  0  0  0  0
  -24.1957   -4.2985  -28.6410 H   0  0  0  0  0  0  0  0  0  0  0  0
  -20.0926   -4.3531  -24.4667 H   0  0  0  0  0  0  0  0  0  0  0  0
  -15.8596   -3.6022  -26.8037 H   0  0  0  0  0  0  0  0  0  0  0  0
  -22.8700   -7.1863  -37.2045 H   0  0  0  0  0  0  0  0  0  0  0  0
  -21.9993   -6.3913  -38.5552 H   0  0  0  0  0  0  0  0  0  0  0  0
  -21.1435   -4.8439  -37.0173 H   0  0  0  0  0  0  0  0  0  0  0  0
  -21.8499   -5.7613  -35.6483 H   0  0  0  0  0  0  0  0  0  0  0  0
  -23.6142   -3.6654  -31.5961 H   0  0  0  0  0  0  0  0  0  0  0  0
  -23.1421   -5.3402  -31.9749 H   0  0  0  0  0  0  0  0  0  0  0  0
  -24.5040   -5.0405  -30.8966 H   0  0  0  0  0  0  0  0  0  0  0  0
  -18.6912   -6.1199  -29.2253 H   0  0  0  0  0  0  0  0  0  0  0  0
  -18.6308   -4.6762  -30.2662 H   0  0  0  0  0  0  0  0  0  0  0  0
  -18.3253   -4.5185  -28.5373 H   0  0  0  0  0  0  0  0  0  0  0  0
  -18.9308   -7.4960  -25.2814 H   0  0  0  0  0  0  0  0  0  0  0  0
  -19.7482   -7.2778  -26.8485 H   0  0  0  0  0  0  0  0  0  0  0  0
  -18.1826   -8.0855  -26.7862 H   0  0  0  0  0  0  0  0  0  0  0  0
  -21.6983   -9.8687  -37.7902 H   0  0  0  0  0  0  0  0  0  0  0  0
  -21.8721   -8.8389  -39.2517 H   0  0  0  0  0  0  0  0  0  0  0  0
  -20.2607   -9.4905  -38.7985 H   0  0  0  0  0  0  0  0  0  0  0  0
  -29.4807   -4.0083  -24.5205 H   0  0  0  0  0  0  0  0  0  0  0  0
  -28.9307   -5.5425  -23.7728 H   0  0  0  0  0  0  0  0  0  0  0  0
  -29.0638   -4.0570  -22.7771 H   0  0  0  0  0  0  0  0  0  0  0  0
  -18.7579   -4.7838  -35.8662 H   0  0  0  0  0  0  0  0  0  0  0  0
  -18.1302   -6.3494  -35.3499 H   0  0  0  0  0  0  0  0  0  0  0  0
  -24.8690   -3.1693  -22.4993 H   0  0  0  0  0  0  0  0  0  0  0  0
  -24.3010   -4.7433  -21.9074 H   0  0  0  0  0  0  0  0  0  0  0  0
  -26.8016   -4.6762  -21.9494 H   0  0  0  0  0  0  0  0  0  0  0  0
  -26.1973   -5.8930  -23.0988 H   0  0  0  0  0  0  0  0  0  0  0  0
  -24.4993   -4.8321  -24.7175 H   0  0  0  0  0  0  0  0  0  0  0  0
  1  3  1  0  0  0  0
  1 10  2  0  0  0  0
  2  4  2  0  0  0  0
  2 10  1  0  0  0  0
  3 12  2  0  0  0  0
  4 12  1  0  0  0  0
  5  8  1  0  0  0  0
  5 18  2  0  0  0  0
  6 13  1  0  0  0  0
  6 15  2  0  0  0  0
  7 16  2  0  0  0  0
  7 17  1  0  0  0  0
  8 31  2  0  0  0  0
  9 14  2  0  0  0  0
  9 15  1  0  0  0  0
  9 16  1  0  0  0  0
 10 11  1  0  0  0  0
 11 13  2  0  0  0  0
 11 14  1  0  0  0  0
 12 28  1  0  0  0  0
 13 23  1  0  0  0  0
 14 24  1  0  0  0  0
 15 32  1  0  0  0  0
 16 33  1  0  0  0  0
 17 20  1  0  0  0  0
 17 32  2  0  0  0  0
 18 25  1  0  0  0  0
 18 33  1  0  0  0  0
 19 34  1  0  0  0  0
 19 35  1  0  0  0  0
 19 37  2  0  0  0  0
 20 36  1  0  0  0  0
 20 38  2  0  0  0  0
 21 22  1  0  0  0  0
 21 34  1  0  0  0  0
 22 35  1  0  0  0  0
 26 34  1  0  0  0  0
 27 41  1  0  0  0  0
 28 35  1  0  0  0  0
 29 30  1  0  0  0  0
 29 36  1  0  0  0  0
 30 41  1  0  0  0  0
 31 33  1  0  0  0  0
 39 41  2  0  0  0  0
 40 41  2  0  0  0  0
  1 42  1  0  0  0  0
  2 43  1  0  0  0  0
  3 44  1  0  0  0  0
  4 45  1  0  0  0  0
  5 46  1  0  0  0  0
  6 47  1  0  0  0  0
  7 48  1  0  0  0  0
  8 49  1  0  0  0  0
 21 50  1  0  0  0  0
 21 51  1  0  0  0  0
 22 52  1  0  0  0  0
 22 53  1  0  0  0  0
 23 54  1  0  0  0  0
 23 55  1  0  0  0  0
 23 56  1  0  0  0  0
 24 57  1  0  0  0  0
 24 58  1  0  0  0  0
 24 59  1  0  0  0  0
 25 60  1  0  0  0  0
 25 61  1  0  0  0  0
 25 62  1  0  0  0  0
 26 63  1  0  0  0  0
 26 64  1  0  0  0  0
 26 65  1  0  0  0  0
 27 66  1  0  0  0  0
 27 67  1  0  0  0  0
 27 68  1  0  0  0  0
 28 69  1  0  0  0  0
 28 70  1  0  0  0  0
 29 71  1  0  0  0  0
 29 72  1  0  0  0  0
 30 73  1  0  0  0  0
 30 74  1  0  0  0  0
 36 75  1  0  0  0  0
M  END
> <SMILES>
CN1CCN(Cc2ccc(cc2)-c2c(cc3nc(cc(c3c2C)-n2nccc2C)C(=O)NCCS(=O)(=O)C)C)C1=O

> <FORMATTED_ID>
H3D-007211

> <MOLFORMULA>
C30H34N6O4S

> <Exact Mass>
574.24

> <XLogP>
3.22

> <TPSA_NOPS>
125.9

> <s_m_source_file>
ligprep_h3d.sdf

> <i_m_source_file_index>
1127

> <i_lp_mmshare_version>
55123

> <i_f3d_flags>
0

> <s_epik_input>
W0NIM11OMVtDSDJdW0NIMl1OKEMxPU8pW0NIMl1jMltjSF1bY0hdYyhbY0hdW2NIXTIpLWMoYyhbY0hdMylbQ0gzXSljKFtDSDNdKWMoYzM0KWMoLW41bltjSF1bY0hdYzVbQ0gzXSlbY0hdYyhuNClDKD1PKVtOSF1bQ0gyXVtDSDJdUyg9TykoPU8pW0NIM10=

> <s_epik_cmdline>
J2VwaWtfcHl0aG9uJywgJy1waHQnLCAnMC41JywgJy1waCcsICc3LjUnLCAnLXRuJywgJzgnLCAnLW1hJywgJzUwMCcsICctaW1hZScsICc8aW5maWxlLm1hZT4nLCAnLW9tYWUnLCAnPG91dGZpbGUubWFlPic=

> <r_lp_tautomer_probability>
1

> <r_epik_Ionization_Penalty>
4.00864e-05

> <r_epik_Ionization_Penalty_Charging>
0

> <r_epik_Ionization_Penalty_Neutral>
4.00864e-05

> <r_epik_State_Penalty>
-0

> <r_epik_Charging_Adjusted_Penalty>
0

> <i_epik_Tot_Q>
0

> <i_epik_Tot_abs_Q>
0

> <s_lp_Force_Field>
S-OPLS

> <r_lp_Energy>
25.7302

> <b_lp_Chiralities_Consistent>
1

> <s_lp_Variant>
ligprep_h3d.sdf:1127-1

> <ROCS_ShapeQuery>
_7L13

> <ROCS_TanimotoCombo>
0.688 

> <ROCS_ShapeTanimoto>
0.581 

> <ROCS_ColorTanimoto>
0.107 

> <ROCS_RefTversky>
0.778 

> <ROCS_RefColorTversky>
0.221 

> <ROCS_RefTverskyCombo>
1.000 

> <ROCS_FitTversky>
0.696 

> <ROCS_FitColorTversky>
0.171 

> <ROCS_FitTverskyCombo>
0.867 

> <ROCS_ColorScore>
-2.027

> <ROCS_Overlap>
1300.891

> <ROCS_Rank>
388                 

$$$$
ligprep_h3d.sdf:5331_362
  -OEChem-08212117123D

 65 70  0     0  0  0  0  0  0999 V2000
  -18.7958   -6.9964  -35.4192 C   0  0  0  0  0  0  0  0  0  0  0  0
  -19.8826   -7.7600  -34.9933 C   0  0  0  0  0  0  0  0  0  0  0  0
  -18.6021   -5.7130  -34.9084 C   0  0  0  0  0  0  0  0  0  0  0  0
  -20.7758   -7.2401  -34.0566 C   0  0  0  0  0  0  0  0  0  0  0  0
  -19.4954   -5.1931  -33.9717 C   0  0  0  0  0  0  0  0  0  0  0  0
  -23.0542   -3.8775  -28.8200 C   0  0  0  0  0  0  0  0  0  0  0  0
  -20.4138   -4.6991  -29.3544 C   0  0  0  0  0  0  0  0  0  0  0  0
  -14.5195   -5.6023  -25.6700 C   0  0  0  0  0  0  0  0  0  0  0  0
  -15.0223   -6.6728  -26.3713 C   0  0  0  0  0  0  0  0  0  0  0  0
  -22.1773   -4.1830  -27.7861 C   0  0  0  0  0  0  0  0  0  0  0  0
  -20.5823   -5.9566  -33.5458 C   0  0  0  0  0  0  0  0  0  0  0  0
  -20.8624   -4.5904  -28.0431 C   0  0  0  0  0  0  0  0  0  0  0  0
  -22.5998   -3.9784  -30.1343 C   0  0  0  0  0  0  0  0  0  0  0  0
  -21.2879   -4.3879  -30.3998 C   0  0  0  0  0  0  0  0  0  0  0  0
  -16.5784   -5.1355  -26.0037 C   0  0  0  0  0  0  0  0  0  0  0  0
  -17.9011   -4.6121  -26.1017 C   0  0  0  0  0  0  0  0  0  0  0  0
  -18.5643   -6.6090  -27.3312 C   0  0  0  0  0  0  0  0  0  0  0  0
  -17.3213   -7.1087  -27.2440 C   0  0  0  0  0  0  0  0  0  0  0  0
  -18.8760   -5.3042  -26.7371 C   0  0  0  0  0  0  0  0  0  0  0  0
  -23.3996   -2.9042  -24.3159 C   0  0  0  0  0  0  0  0  0  0  0  0
  -23.7648   -5.4059  -24.4581 C   0  0  0  0  0  0  0  0  0  0  0  0
  -23.0490   -2.8655  -25.8043 C   0  0  0  0  0  0  0  0  0  0  0  0
  -23.3730   -5.3802  -25.9384 C   0  0  0  0  0  0  0  0  0  0  0  0
  -20.9995   -4.4085  -25.7470 C   0  0  0  0  0  0  0  0  0  0  0  0
  -24.3435   -4.0649  -24.0173 C   0  0  0  0  0  0  0  0  0  0  0  0
  -22.4469   -4.1962  -26.2995 C   0  0  0  0  0  0  0  0  0  0  0  0
  -23.4679   -2.3293  -31.6117 C   0  0  0  0  0  0  0  0  0  0  0  0
  -21.5430   -5.3966  -32.5383 C   0  0  0  0  0  0  0  0  0  0  0  0
  -15.4859   -4.6549  -25.4457 N   0  0  0  0  0  0  0  0  0  0  0  0
  -16.3433   -6.3746  -26.5859 N   0  0  0  0  0  0  0  0  0  0  0  0
  -20.1478   -4.8510  -26.8578 N   0  0  0  0  0  0  0  0  0  0  0  0
  -24.6017   -4.1107  -22.5534 N   0  3  0  0  0  0  0  0  0  0  0  0
  -23.4491   -3.6810  -31.1582 O   0  0  0  0  0  0  0  0  0  0  0  0
  -20.8477   -4.4892  -31.6866 O   0  0  0  0  0  0  0  0  0  0  0  0
  -18.0995   -7.4019  -36.1476 H   0  0  0  0  0  0  0  0  0  0  0  0
  -20.0329   -8.7598  -35.3902 H   0  0  0  0  0  0  0  0  0  0  0  0
  -17.7555   -5.1186  -35.2389 H   0  0  0  0  0  0  0  0  0  0  0  0
  -21.6200   -7.8421  -33.7307 H   0  0  0  0  0  0  0  0  0  0  0  0
  -19.3367   -4.1921  -33.5793 H   0  0  0  0  0  0  0  0  0  0  0  0
  -24.0762   -3.5763  -28.6130 H   0  0  0  0  0  0  0  0  0  0  0  0
  -19.3998   -5.0140  -29.5803 H   0  0  0  0  0  0  0  0  0  0  0  0
  -13.5084   -5.4664  -25.3152 H   0  0  0  0  0  0  0  0  0  0  0  0
  -14.5705   -7.5893  -26.7251 H   0  0  0  0  0  0  0  0  0  0  0  0
  -18.1056   -3.6449  -25.6530 H   0  0  0  0  0  0  0  0  0  0  0  0
  -19.3474   -7.1612  -27.8398 H   0  0  0  0  0  0  0  0  0  0  0  0
  -17.0422   -8.0663  -27.6665 H   0  0  0  0  0  0  0  0  0  0  0  0
  -22.4801   -2.9948  -23.7245 H   0  0  0  0  0  0  0  0  0  0  0  0
  -23.8691   -1.9541  -24.0335 H   0  0  0  0  0  0  0  0  0  0  0  0
  -24.5001   -6.2038  -24.2972 H   0  0  0  0  0  0  0  0  0  0  0  0
  -22.8881   -5.6604  -23.8506 H   0  0  0  0  0  0  0  0  0  0  0  0
  -23.9636   -2.6338  -26.3660 H   0  0  0  0  0  0  0  0  0  0  0  0
  -22.3594   -2.0332  -25.9955 H   0  0  0  0  0  0  0  0  0  0  0  0
  -22.9015   -6.3359  -26.2025 H   0  0  0  0  0  0  0  0  0  0  0  0
  -24.2943   -5.3228  -26.5343 H   0  0  0  0  0  0  0  0  0  0  0  0
  -20.5894   -3.4679  -25.3553 H   0  0  0  0  0  0  0  0  0  0  0  0
  -20.9703   -5.1363  -24.9286 H   0  0  0  0  0  0  0  0  0  0  0  0
  -25.3171   -3.8962  -24.4918 H   0  0  0  0  0  0  0  0  0  0  0  0
  -24.1860   -2.2285  -32.4292 H   0  0  0  0  0  0  0  0  0  0  0  0
  -22.4693   -2.0444  -31.9524 H   0  0  0  0  0  0  0  0  0  0  0  0
  -23.7673   -1.6811  -30.7848 H   0  0  0  0  0  0  0  0  0  0  0  0
  -22.3634   -4.8651  -33.0326 H   0  0  0  0  0  0  0  0  0  0  0  0
  -21.9784   -6.1974  -31.9310 H   0  0  0  0  0  0  0  0  0  0  0  0
  -25.5501   -3.7872  -22.3415 H   0  0  0  0  0  0  0  0  0  0  0  0
  -23.9403   -3.5121  -22.0496 H   0  0  0  0  0  0  0  0  0  0  0  0
  -24.5031   -5.0660  -22.1969 H   0  0  0  0  0  0  0  0  0  0  0  0
  1  2  2  0  0  0  0
  1  3  1  0  0  0  0
  2  4  1  0  0  0  0
  3  5  2  0  0  0  0
  4 11  2  0  0  0  0
  5 11  1  0  0  0  0
  6 10  1  0  0  0  0
  6 13  2  0  0  0  0
  7 12  1  0  0  0  0
  7 14  2  0  0  0  0
  8  9  2  0  0  0  0
  8 29  1  0  0  0  0
  9 30  1  0  0  0  0
 10 12  2  0  0  0  0
 10 26  1  0  0  0  0
 11 28  1  0  0  0  0
 12 31  1  0  0  0  0
 13 14  1  0  0  0  0
 13 33  1  0  0  0  0
 14 34  1  0  0  0  0
 15 16  1  0  0  0  0
 15 29  2  0  0  0  0
 15 30  1  0  0  0  0
 16 19  2  0  0  0  0
 17 18  2  0  0  0  0
 17 19  1  0  0  0  0
 18 30  1  0  0  0  0
 19 31  1  0  0  0  0
 20 22  1  0  0  0  0
 20 25  1  0  0  0  0
 21 23  1  0  0  0  0
 21 25  1  0  0  0  0
 22 26  1  0  0  0  0
 23 26  1  0  0  0  0
 24 26  1  0  0  0  0
 24 31  1  0  0  0  0
 25 32  1  0  0  0  0
 27 33  1  0  0  0  0
 28 34  1  0  0  0  0
  1 35  1  0  0  0  0
  2 36  1  0  0  0  0
  3 37  1  0  0  0  0
  4 38  1  0  0  0  0
  5 39  1  0  0  0  0
  6 40  1  0  0  0  0
  7 41  1  0  0  0  0
  8 42  1  0  0  0  0
  9 43  1  0  0  0  0
 16 44  1  0  0  0  0
 17 45  1  0  0  0  0
 18 46  1  0  0  0  0
 20 47  1  0  0  0  0
 20 48  1  0  0  0  0
 21 49  1  0  0  0  0
 21 50  1  0  0  0  0
 22 51  1  0  0  0  0
 22 52  1  0  0  0  0
 23 53  1  0  0  0  0
 23 54  1  0  0  0  0
 24 55  1  0  0  0  0
 24 56  1  0  0  0  0
 25 57  1  0  0  0  0
 27 58  1  0  0  0  0
 27 59  1  0  0  0  0
 27 60  1  0  0  0  0
 28 61  1  0  0  0  0
 28 62  1  0  0  0  0
 32 63  1  0  0  0  0
 32 64  1  0  0  0  0
 32 65  1  0  0  0  0
M  CHG  1  32   1
M  END
> <SMILES>
COc1cc2c(cc1OCc1ccccc1)N(CC12CCC(N)CC1)c1ccn2ccnc2c1

> <FORMATTED_ID>
H3D-014935

> <MOLFORMULA>
C28H30N4O2

> <Exact Mass>
454.24

> <XLogP>
6.21

> <TPSA_NOPS>
65

> <s_m_source_file>
ligprep_h3d.sdf

> <i_m_source_file_index>
5331

> <i_lp_mmshare_version>
55123

> <i_f3d_flags>
0

> <s_epik_input>
W2NIXTFbY0hdW2NIXVtjSF1bY0hdYzFbQ0gyXU9jKGMoW2NIXTIpT1tDSDNdKVtjSF1jKGMyW0NAXTM0W0NIMl1bQ0gyXVtDQEhdKFtOSDJdKVtDSDJdW0NIMl00KU4oW0NIMl0zKWMoW2NIXVtjSF01KVtjSF1jKG41NiluW2NIXVtjSF02

> <s_epik_cmdline>
J2VwaWtfcHl0aG9uJywgJy1waHQnLCAnMC41JywgJy1waCcsICc3LjUnLCAnLXRuJywgJzgnLCAnLW1hJywgJzUwMCcsICctaW1hZScsICc8aW5maWxlLm1hZT4nLCAnLW9tYWUnLCAnPG91dGZpbGUubWFlPic=

> <r_lp_tautomer_probability>
1

> <r_epik_Ionization_Penalty>
0.497465

> <r_epik_Ionization_Penalty_Charging>
0.497465

> <r_epik_Ionization_Penalty_Neutral>
3.61118e-09

> <r_epik_State_Penalty>
0.502526

> <r_epik_Charging_Adjusted_Penalty>
0.999991

> <i_epik_Tot_Q>
1

> <i_epik_Tot_abs_Q>
1

> <s_lp_Force_Field>
S-OPLS

> <r_lp_Energy>
71.7617

> <b_lp_Chiralities_Consistent>
1

> <s_lp_Variant>
ligprep_h3d.sdf:5331-2

> <ROCS_ShapeQuery>
_7L13

> <ROCS_TanimotoCombo>
0.772 

> <ROCS_ShapeTanimoto>
0.659 

> <ROCS_ColorTanimoto>
0.113 

> <ROCS_RefTversky>
0.778 

> <ROCS_RefColorTversky>
0.223 

> <ROCS_RefTverskyCombo>
1.002 

> <ROCS_FitTversky>
0.811 

> <ROCS_FitColorTversky>
0.186 

> <ROCS_FitTverskyCombo>
0.997 

> <ROCS_ColorScore>
-2.033

> <ROCS_Overlap>
1289.419

> <ROCS_Rank>
389                 

$$$$
ligprep_h3d.sdf:4411_1280
  -OEChem-08212117123D

 56 60  0     0  0  0  0  0  0999 V2000
  -19.7599   -5.8982  -35.9659 C   0  0  0  0  0  0  0  0  0  0  0  0
  -19.2187   -6.7029  -36.9684 C   0  0  0  0  0  0  0  0  0  0  0  0
  -20.5178   -4.6350  -25.4019 C   0  0  0  0  0  0  0  0  0  0  0  0
  -20.6573   -7.8591  -34.8765 C   0  0  0  0  0  0  0  0  0  0  0  0
  -22.4120   -3.5959  -26.4586 C   0  0  0  0  0  0  0  0  0  0  0  0
  -21.4205   -4.5568  -30.4902 C   0  0  0  0  0  0  0  0  0  0  0  0
  -19.9092   -4.6668  -26.6463 C   0  0  0  0  0  0  0  0  0  0  0  0
  -22.9834   -3.1487  -32.3678 C   0  0  0  0  0  0  0  0  0  0  0  0
  -20.4792   -6.4763  -34.9199 C   0  0  0  0  0  0  0  0  0  0  0  0
  -21.7930   -4.0877  -25.3148 C   0  0  0  0  0  0  0  0  0  0  0  0
  -20.1161   -8.6638  -35.8791 C   0  0  0  0  0  0  0  0  0  0  0  0
  -22.1455   -4.1800  -32.7933 C   0  0  0  0  0  0  0  0  0  0  0  0
  -21.3859   -4.8574  -31.8449 C   0  0  0  0  0  0  0  0  0  0  0  0
  -19.3967   -8.0856  -36.9251 C   0  0  0  0  0  0  0  0  0  0  0  0
  -21.7186   -3.6740  -27.6557 C   0  0  0  0  0  0  0  0  0  0  0  0
  -22.2829   -3.5181  -30.1698 C   0  0  0  0  0  0  0  0  0  0  0  0
  -21.0387   -5.6436  -33.8828 C   0  0  0  0  0  0  0  0  0  0  0  0
  -22.4825   -4.0305  -24.0199 C   0  0  0  0  0  0  0  0  0  0  0  0
  -25.8532   -4.1667  -22.8307 C   0  0  0  0  0  0  0  0  0  0  0  0
  -25.7634   -5.0490  -25.1898 C   0  0  0  0  0  0  0  0  0  0  0  0
  -24.4228   -4.6534  -22.6197 C   0  0  0  0  0  0  0  0  0  0  0  0
  -24.3377   -5.5240  -24.9298 C   0  0  0  0  0  0  0  0  0  0  0  0
  -26.5736   -4.9999  -23.8921 C   0  0  0  0  0  0  0  0  0  0  0  0
  -20.3074  -10.1422  -35.8297 C   0  0  0  0  0  0  0  0  0  0  0  0
  -20.4788   -4.1987  -27.7795 N   0  0  0  0  0  0  0  0  0  0  0  0
  -23.0447   -2.8253  -31.0521 N   0  0  0  0  0  0  0  0  0  0  0  0
  -21.9175   -4.6812  -34.0533 N   0  0  0  0  0  0  0  0  0  0  0  0
  -20.6872   -5.7885  -32.5693 N   0  0  0  0  0  0  0  0  0  0  0  0
  -23.7019   -4.6995  -23.8928 N   0  0  0  0  0  0  0  0  0  0  0  0
  -22.3620   -3.1682  -28.8125 N   0  0  0  0  0  0  0  0  0  0  0  0
  -21.9266   -3.3788  -23.1371 O   0  0  0  0  0  0  0  0  0  0  0  0
  -27.8488   -4.4211  -24.1416 O   0  0  0  0  0  0  0  0  0  0  0  0
  -18.8749   -8.8505  -37.8941 F   0  0  0  0  0  0  0  0  0  0  0  0
  -21.0299  -10.5649  -34.7503 F   0  0  0  0  0  0  0  0  0  0  0  0
  -20.9640  -10.6450  -36.9167 F   0  0  0  0  0  0  0  0  0  0  0  0
  -19.1258  -10.8226  -35.7685 F   0  0  0  0  0  0  0  0  0  0  0  0
  -19.6125   -4.8218  -36.0137 H   0  0  0  0  0  0  0  0  0  0  0  0
  -18.6578   -6.2540  -37.7830 H   0  0  0  0  0  0  0  0  0  0  0  0
  -20.0069   -5.0278  -24.5293 H   0  0  0  0  0  0  0  0  0  0  0  0
  -21.2174   -8.3165  -34.0632 H   0  0  0  0  0  0  0  0  0  0  0  0
  -23.4075   -3.1643  -26.4107 H   0  0  0  0  0  0  0  0  0  0  0  0
  -20.8244   -5.0895  -29.7602 H   0  0  0  0  0  0  0  0  0  0  0  0
  -18.9149   -5.0836  -26.7678 H   0  0  0  0  0  0  0  0  0  0  0  0
  -23.6058   -2.5705  -33.0390 H   0  0  0  0  0  0  0  0  0  0  0  0
  -26.4094   -4.2114  -21.8867 H   0  0  0  0  0  0  0  0  0  0  0  0
  -25.8509   -3.1087  -23.1243 H   0  0  0  0  0  0  0  0  0  0  0  0
  -25.7512   -4.0580  -25.6616 H   0  0  0  0  0  0  0  0  0  0  0  0
  -26.2565   -5.7155  -25.9074 H   0  0  0  0  0  0  0  0  0  0  0  0
  -23.9086   -4.0006  -21.9072 H   0  0  0  0  0  0  0  0  0  0  0  0
  -24.4178   -5.6669  -22.2017 H   0  0  0  0  0  0  0  0  0  0  0  0
  -24.3384   -6.5592  -24.5682 H   0  0  0  0  0  0  0  0  0  0  0  0
  -23.7703   -5.5063  -25.8635 H   0  0  0  0  0  0  0  0  0  0  0  0
  -26.7336   -6.0162  -23.5123 H   0  0  0  0  0  0  0  0  0  0  0  0
  -20.0297   -6.4598  -32.1946 H   0  0  0  0  0  0  0  0  0  0  0  0
  -23.0004   -2.4069  -28.6145 H   0  0  0  0  0  0  0  0  0  0  0  0
  -28.2776   -4.9713  -24.8164 H   0  0  0  0  0  0  0  0  0  0  0  0
  1  2  1  0  0  0  0
  1  9  2  0  0  0  0
  2 14  2  0  0  0  0
  3  7  1  0  0  0  0
  3 10  2  0  0  0  0
  4  9  1  0  0  0  0
  4 11  2  0  0  0  0
  5 10  1  0  0  0  0
  5 15  2  0  0  0  0
  6 13  1  0  0  0  0
  6 16  2  0  0  0  0
  7 25  2  0  0  0  0
  8 12  1  0  0  0  0
  8 26  2  0  0  0  0
  9 17  1  0  0  0  0
 10 18  1  0  0  0  0
 11 14  1  0  0  0  0
 11 24  1  0  0  0  0
 12 13  2  0  0  0  0
 12 27  1  0  0  0  0
 13 28  1  0  0  0  0
 14 33  1  0  0  0  0
 15 25  1  0  0  0  0
 15 30  1  0  0  0  0
 16 26  1  0  0  0  0
 16 30  1  0  0  0  0
 17 27  2  0  0  0  0
 17 28  1  0  0  0  0
 18 29  1  0  0  0  0
 18 31  2  0  0  0  0
 19 21  1  0  0  0  0
 19 23  1  0  0  0  0
 20 22  1  0  0  0  0
 20 23  1  0  0  0  0
 21 29  1  0  0  0  0
 22 29  1  0  0  0  0
 23 32  1  0  0  0  0
 24 34  1  0  0  0  0
 24 35  1  0  0  0  0
 24 36  1  0  0  0  0
  1 37  1  0  0  0  0
  2 38  1  0  0  0  0
  3 39  1  0  0  0  0
  4 40  1  0  0  0  0
  5 41  1  0  0  0  0
  6 42  1  0  0  0  0
  7 43  1  0  0  0  0
  8 44  1  0  0  0  0
 19 45  1  0  0  0  0
 19 46  1  0  0  0  0
 20 47  1  0  0  0  0
 20 48  1  0  0  0  0
 21 49  1  0  0  0  0
 21 50  1  0  0  0  0
 22 51  1  0  0  0  0
 22 52  1  0  0  0  0
 23 53  1  0  0  0  0
 28 54  1  0  0  0  0
 30 55  1  0  0  0  0
 32 56  1  0  0  0  0
M  END
> <SMILES>
OC1CCN(CC1)C(=O)c1ccnc(c1)Nc1cc2[nH]c(nc2cn1)-c1ccc(c(c1)C(F)(F)F)F

> <FORMATTED_ID>
H3D-003993

> <MOLFORMULA>
C24H20F4N6O2

> <Exact Mass>
500.16

> <XLogP>
4.51

> <TPSA_NOPS>
107

> <s_m_source_file>
ligprep_h3d.sdf

> <i_m_source_file_index>
4411

> <i_lp_mmshare_version>
55123

> <i_f3d_flags>
0

> <s_epik_input>
W09IXVtDSF0xW0NIMl1bQ0gyXU4oW0NIMl1bQ0gyXTEpQyg9TyljMltjSF1bY0hdbmMoW2NIXTIpW05IXWMoW2NIXTMpW25IXVtjSF1jKGMzNCluYyhuNCktYzVbY0hdW2NIXWMoRiljKFtjSF01KUMoRikoRilG

> <s_epik_cmdline>
J2VwaWtfcHl0aG9uJywgJy1waHQnLCAnMC41JywgJy1waCcsICc3LjUnLCAnLXRuJywgJzgnLCAnLW1hJywgJzUwMCcsICctaW1hZScsICc8aW5maWxlLm1hZT4nLCAnLW9tYWUnLCAnPG91dGZpbGUubWFlPic=

> <r_lp_tautomer_probability>
1

> <r_epik_Ionization_Penalty>
0.0951785

> <r_epik_Ionization_Penalty_Charging>
0.0947018

> <r_epik_Ionization_Penalty_Neutral>
0.000476775

> <r_epik_State_Penalty>
-0

> <r_epik_Charging_Adjusted_Penalty>
0.0947018

> <i_epik_Tot_Q>
0

> <i_epik_Tot_abs_Q>
0

> <s_lp_Force_Field>
S-OPLS

> <r_lp_Energy>
39.9957

> <b_lp_Chiralities_Consistent>
1

> <s_lp_Variant>
ligprep_h3d.sdf:4411-1

> <ROCS_ShapeQuery>
_7L13

> <ROCS_TanimotoCombo>
0.805 

> <ROCS_ShapeTanimoto>
0.628 

> <ROCS_ColorTanimoto>
0.177 

> <ROCS_RefTversky>
0.778 

> <ROCS_RefColorTversky>
0.360 

> <ROCS_RefTverskyCombo>
1.138 

> <ROCS_FitTversky>
0.765 

> <ROCS_FitColorTversky>
0.258 

> <ROCS_FitTverskyCombo>
1.024 

> <ROCS_ColorScore>
-3.310

> <ROCS_Overlap>
1293.458

> <ROCS_Rank>
390                 

$$$$
ligprep_h3d.sdf:5054_1873
  -OEChem-08212117123D

 69 74  0     0  0  0  0  0  0999 V2000
  -19.2507   -5.9002  -35.1334 C   0  0  0  0  0  0  0  0  0  0  0  0
  -20.0021   -7.0720  -35.0709 C   0  0  0  0  0  0  0  0  0  0  0  0
  -19.3149   -4.9523  -34.1055 C   0  0  0  0  0  0  0  0  0  0  0  0
  -20.8395   -7.3341  -33.9828 C   0  0  0  0  0  0  0  0  0  0  0  0
  -20.4563   -4.4752  -31.8090 C   0  0  0  0  0  0  0  0  0  0  0  0
  -20.5359   -4.0966  -25.2068 C   0  0  0  0  0  0  0  0  0  0  0  0
  -22.7635   -4.0952  -26.9262 C   0  0  0  0  0  0  0  0  0  0  0  0
  -20.1523   -5.1947  -32.9985 C   0  0  0  0  0  0  0  0  0  0  0  0
  -20.3790   -4.4083  -26.5525 C   0  0  0  0  0  0  0  0  0  0  0  0
  -20.8938   -6.3776  -32.9628 C   0  0  0  0  0  0  0  0  0  0  0  0
  -21.4944   -4.4026  -27.4017 C   0  0  0  0  0  0  0  0  0  0  0  0
  -21.8062   -3.7787  -24.7214 C   0  0  0  0  0  0  0  0  0  0  0  0
  -22.9129   -3.7800  -25.5753 C   0  0  0  0  0  0  0  0  0  0  0  0
  -21.3598   -5.2212  -31.0878 C   0  0  0  0  0  0  0  0  0  0  0  0
  -21.9767   -4.9035  -29.7908 C   0  0  0  0  0  0  0  0  0  0  0  0
  -18.7166   -6.2831  -26.9168 C   0  0  0  0  0  0  0  0  0  0  0  0
  -17.9333   -3.8642  -27.1500 C   0  0  0  0  0  0  0  0  0  0  0  0
  -25.9509   -4.9677  -24.5487 C   0  0  0  0  0  0  0  0  0  0  0  0
  -24.9392   -3.4741  -22.8102 C   0  0  0  0  0  0  0  0  0  0  0  0
  -19.6412   -4.8074  -28.7575 C   0  0  0  0  0  0  0  0  0  0  0  0
  -17.9042   -6.3913  -25.6326 C   0  0  0  0  0  0  0  0  0  0  0  0
  -17.0984   -4.0319  -25.8860 C   0  0  0  0  0  0  0  0  0  0  0  0
  -26.6320   -5.7171  -23.4123 C   0  0  0  0  0  0  0  0  0  0  0  0
  -25.6746   -4.3031  -21.7667 C   0  0  0  0  0  0  0  0  0  0  0  0
  -24.6663   -4.3035  -24.0624 C   0  0  0  0  0  0  0  0  0  0  0  0
  -19.1206   -4.8389  -27.2886 C   0  0  0  0  0  0  0  0  0  0  0  0
  -15.6072   -5.9423  -26.5742 C   0  0  0  0  0  0  0  0  0  0  0  0
  -20.7770   -3.4885  -22.5968 C   0  0  0  0  0  0  0  0  0  0  0  0
  -21.6173   -6.3669  -31.7916 N   0  0  0  0  0  0  0  0  0  0  0  0
  -21.1130   -4.7263  -28.7175 N   0  0  0  0  0  0  0  0  0  0  0  0
  -16.7134   -5.4702  -25.6686 N   0  3  0  0  0  0  0  0  0  0  0  0
  -23.2030   -4.8406  -29.7800 O   0  0  0  0  0  0  0  0  0  0  0  0
  -26.8796   -4.8449  -22.3089 O   0  0  0  0  0  0  0  0  0  0  0  0
  -24.1514   -3.4735  -25.0954 O   0  0  0  0  0  0  0  0  0  0  0  0
  -21.9540   -3.4673  -23.4015 O   0  0  0  0  0  0  0  0  0  0  0  0
  -18.6060   -5.7190  -35.9894 H   0  0  0  0  0  0  0  0  0  0  0  0
  -19.9371   -7.7941  -35.8805 H   0  0  0  0  0  0  0  0  0  0  0  0
  -18.7233   -4.0431  -34.1667 H   0  0  0  0  0  0  0  0  0  0  0  0
  -21.4248   -8.2462  -33.9346 H   0  0  0  0  0  0  0  0  0  0  0  0
  -20.0542   -3.5143  -31.5162 H   0  0  0  0  0  0  0  0  0  0  0  0
  -19.6801   -4.0998  -24.5341 H   0  0  0  0  0  0  0  0  0  0  0  0
  -23.6374   -4.0919  -27.5666 H   0  0  0  0  0  0  0  0  0  0  0  0
  -18.1477   -6.7443  -27.7431 H   0  0  0  0  0  0  0  0  0  0  0  0
  -19.6206   -6.9085  -26.8090 H   0  0  0  0  0  0  0  0  0  0  0  0
  -18.3012   -2.8175  -27.1841 H   0  0  0  0  0  0  0  0  0  0  0  0
  -17.2666   -3.9465  -28.0332 H   0  0  0  0  0  0  0  0  0  0  0  0
  -25.7385   -5.6411  -25.3867 H   0  0  0  0  0  0  0  0  0  0  0  0
  -26.6273   -4.1952  -24.9372 H   0  0  0  0  0  0  0  0  0  0  0  0
  -25.5480   -2.6029  -23.0851 H   0  0  0  0  0  0  0  0  0  0  0  0
  -24.0021   -3.0795  -22.4016 H   0  0  0  0  0  0  0  0  0  0  0  0
  -19.2705   -3.9402  -29.3165 H   0  0  0  0  0  0  0  0  0  0  0  0
  -19.3668   -5.7073  -29.3202 H   0  0  0  0  0  0  0  0  0  0  0  0
  -18.5196   -6.0977  -24.7671 H   0  0  0  0  0  0  0  0  0  0  0  0
  -17.5299   -7.4133  -25.4593 H   0  0  0  0  0  0  0  0  0  0  0  0
  -16.1676   -3.4390  -25.9190 H   0  0  0  0  0  0  0  0  0  0  0  0
  -17.6768   -3.7099  -25.0029 H   0  0  0  0  0  0  0  0  0  0  0  0
  -27.5965   -6.1092  -23.7499 H   0  0  0  0  0  0  0  0  0  0  0  0
  -26.0277   -6.5677  -23.0760 H   0  0  0  0  0  0  0  0  0  0  0  0
  -25.0462   -5.1186  -21.3898 H   0  0  0  0  0  0  0  0  0  0  0  0
  -25.9463   -3.6734  -20.9137 H   0  0  0  0  0  0  0  0  0  0  0  0
  -23.9177   -5.0745  -23.8425 H   0  0  0  0  0  0  0  0  0  0  0  0
  -15.9836   -5.9239  -27.5986 H   0  0  0  0  0  0  0  0  0  0  0  0
  -14.7630   -5.2607  -26.4538 H   0  0  0  0  0  0  0  0  0  0  0  0
  -15.3388   -6.9567  -26.2730 H   0  0  0  0  0  0  0  0  0  0  0  0
  -21.0331   -3.2223  -21.5684 H   0  0  0  0  0  0  0  0  0  0  0  0
  -20.0481   -2.7794  -22.9972 H   0  0  0  0  0  0  0  0  0  0  0  0
  -20.3518   -4.4947  -22.6153 H   0  0  0  0  0  0  0  0  0  0  0  0
  -22.2476   -7.1004  -31.4975 H   0  0  0  0  0  0  0  0  0  0  0  0
  -16.2998   -5.5062  -24.6910 H   0  0  0  0  0  0  0  0  0  0  0  0
  1  2  2  0  0  0  0
  1  3  1  0  0  0  0
  2  4  1  0  0  0  0
  3  8  2  0  0  0  0
  4 10  2  0  0  0  0
  5  8  1  0  0  0  0
  5 14  2  0  0  0  0
  6  9  1  0  0  0  0
  6 12  2  0  0  0  0
  7 11  1  0  0  0  0
  7 13  2  0  0  0  0
  8 10  1  0  0  0  0
  9 11  2  0  0  0  0
  9 26  1  0  0  0  0
 10 29  1  0  0  0  0
 11 30  1  0  0  0  0
 12 13  1  0  0  0  0
 12 35  1  0  0  0  0
 13 34  1  0  0  0  0
 14 15  1  0  0  0  0
 14 29  1  0  0  0  0
 15 30  1  0  0  0  0
 15 32  2  0  0  0  0
 16 21  1  0  0  0  0
 16 26  1  0  0  0  0
 17 22  1  0  0  0  0
 17 26  1  0  0  0  0
 18 23  1  0  0  0  0
 18 25  1  0  0  0  0
 19 24  1  0  0  0  0
 19 25  1  0  0  0  0
 20 26  1  0  0  0  0
 20 30  1  0  0  0  0
 21 31  1  0  0  0  0
 22 31  1  0  0  0  0
 23 33  1  0  0  0  0
 24 33  1  0  0  0  0
 25 34  1  0  0  0  0
 27 31  1  0  0  0  0
 28 35  1  0  0  0  0
  1 36  1  0  0  0  0
  2 37  1  0  0  0  0
  3 38  1  0  0  0  0
  4 39  1  0  0  0  0
  5 40  1  0  0  0  0
  6 41  1  0  0  0  0
  7 42  1  0  0  0  0
 16 43  1  0  0  0  0
 16 44  1  0  0  0  0
 17 45  1  0  0  0  0
 17 46  1  0  0  0  0
 18 47  1  0  0  0  0
 18 48  1  0  0  0  0
 19 49  1  0  0  0  0
 19 50  1  0  0  0  0
 20 51  1  0  0  0  0
 20 52  1  0  0  0  0
 21 53  1  0  0  0  0
 21 54  1  0  0  0  0
 22 55  1  0  0  0  0
 22 56  1  0  0  0  0
 23 57  1  0  0  0  0
 23 58  1  0  0  0  0
 24 59  1  0  0  0  0
 24 60  1  0  0  0  0
 25 61  1  0  0  0  0
 27 62  1  0  0  0  0
 27 63  1  0  0  0  0
 27 64  1  0  0  0  0
 28 65  1  0  0  0  0
 28 66  1  0  0  0  0
 28 67  1  0  0  0  0
 29 68  1  0  0  0  0
 31 69  1  0  0  0  0
M  CHG  1  31   1
M  END
> <SMILES>
COc1cc2c(cc1OC1CCOCC1)N(CC12CCN(C)CC1)C(=O)c1cc2ccccc2[nH]1

> <FORMATTED_ID>
H3D-009404

> <MOLFORMULA>
C28H33N3O4

> <Exact Mass>
475.25

> <XLogP>
5.24

> <TPSA_NOPS>
67

> <s_m_source_file>
ligprep_h3d.sdf

> <i_m_source_file_index>
5054

> <i_lp_mmshare_version>
55123

> <i_f3d_flags>
0

> <s_epik_input>
W0NIMl0xW0NIMl1PW0NIMl1bQ0gyXVtDSF0xT2MoYyhbY0hdMilPW0NIM10pW2NIXWMoYzJDMzRbQ0gyXVtDSDJdTihbQ0gzXSlbQ0gyXVtDSDJdNClOKFtDSDJdMylDKD1PKWMoW2NIXTUpW25IXWMoYzU2KVtjSF1bY0hdW2NIXVtjSF02

> <s_epik_cmdline>
J2VwaWtfcHl0aG9uJywgJy1waHQnLCAnMC41JywgJy1waCcsICc3LjUnLCAnLXRuJywgJzgnLCAnLW1hJywgJzUwMCcsICctaW1hZScsICc8aW5maWxlLm1hZT4nLCAnLW9tYWUnLCAnPG91dGZpbGUubWFlPic=

> <r_lp_tautomer_probability>
1

> <r_epik_Ionization_Penalty>
0.0121631

> <r_epik_Ionization_Penalty_Charging>
0.012163

> <r_epik_Ionization_Penalty_Neutral>
1.83998e-07

> <r_epik_State_Penalty>
0.00940041

> <r_epik_Charging_Adjusted_Penalty>
0.0215634

> <i_epik_Tot_Q>
1

> <i_epik_Tot_abs_Q>
1

> <s_lp_Force_Field>
S-OPLS

> <r_lp_Energy>
74.2481

> <b_lp_Chiralities_Consistent>
1

> <s_lp_Variant>
ligprep_h3d.sdf:5054-1

> <ROCS_ShapeQuery>
_7L13

> <ROCS_TanimotoCombo>
0.777 

> <ROCS_ShapeTanimoto>
0.649 

> <ROCS_ColorTanimoto>
0.129 

> <ROCS_RefTversky>
0.778 

> <ROCS_RefColorTversky>
0.273 

> <ROCS_RefTverskyCombo>
1.051 

> <ROCS_FitTversky>
0.796 

> <ROCS_FitColorTversky>
0.196 

> <ROCS_FitTverskyCombo>
0.992 

> <ROCS_ColorScore>
-2.515

> <ROCS_Overlap>
1290.447

> <ROCS_Rank>
391                 

$$$$
ligprep_h3d.sdf:698_1899
  -OEChem-08212117123D

 59 63  0     0  0  0  0  0  0999 V2000
  -20.1497   -3.8623  -32.2485 C   0  0  0  0  0  0  0  0  0  0  0  0
  -20.6416   -6.2207  -32.0669 C   0  0  0  0  0  0  0  0  0  0  0  0
  -19.6183   -4.0710  -33.5211 C   0  0  0  0  0  0  0  0  0  0  0  0
  -20.1102   -6.4295  -33.3396 C   0  0  0  0  0  0  0  0  0  0  0  0
  -16.6312   -4.7694  -26.6591 C   0  0  0  0  0  0  0  0  0  0  0  0
  -23.1080   -4.2159  -28.7857 C   0  0  0  0  0  0  0  0  0  0  0  0
  -20.7350   -4.4483  -25.3819 C   0  0  0  0  0  0  0  0  0  0  0  0
  -17.0607   -6.1060  -26.5548 C   0  0  0  0  0  0  0  0  0  0  0  0
  -19.2553   -8.6734  -37.0042 C   0  0  0  0  0  0  0  0  0  0  0  0
  -20.4869   -8.6059  -36.3379 C   0  0  0  0  0  0  0  0  0  0  0  0
  -20.9546   -4.5879  -27.7855 C   0  0  0  0  0  0  0  0  0  0  0  0
  -20.6613   -4.9371  -31.5214 C   0  0  0  0  0  0  0  0  0  0  0  0
  -21.2149   -4.7195  -30.1952 C   0  0  0  0  0  0  0  0  0  0  0  0
  -19.5986   -5.3546  -34.0667 C   0  0  0  0  0  0  0  0  0  0  0  0
  -22.5659   -4.4270  -30.0559 C   0  0  0  0  0  0  0  0  0  0  0  0
  -20.4091   -4.8002  -29.0631 C   0  0  0  0  0  0  0  0  0  0  0  0
  -22.3255   -4.2906  -27.6366 C   0  0  0  0  0  0  0  0  0  0  0  0
  -20.1665   -4.6630  -26.6292 C   0  0  0  0  0  0  0  0  0  0  0  0
  -22.0847   -4.1635  -25.3364 C   0  0  0  0  0  0  0  0  0  0  0  0
  -17.7928   -4.0378  -26.7013 C   0  0  0  0  0  0  0  0  0  0  0  0
  -22.7427   -3.9296  -24.0624 C   0  0  0  0  0  0  0  0  0  0  0  0
  -23.4761   -4.3271  -31.2388 C   0  0  0  0  0  0  0  0  0  0  0  0
  -18.9584   -5.1203  -29.2917 C   0  0  0  0  0  0  0  0  0  0  0  0
  -18.0064   -2.5811  -26.8076 C   0  0  0  0  0  0  0  0  0  0  0  0
  -24.8929   -4.0869  -22.7807 C   0  0  0  0  0  0  0  0  0  0  0  0
  -19.0302   -5.5779  -35.4273 C   0  0  0  0  0  0  0  0  0  0  0  0
  -18.3913   -6.2197  -26.5320 N   0  0  0  0  0  0  0  0  0  0  0  0
  -18.5473   -7.5668  -36.7612 N   0  0  0  0  0  0  0  0  0  0  0  0
  -20.5743   -7.4561  -35.6632 N   0  0  0  0  0  0  0  0  0  0  0  0
  -22.8800   -4.0817  -26.4276 N   0  0  0  0  0  0  0  0  0  0  0  0
  -18.8080   -4.9453  -26.6225 N   0  0  0  0  0  0  0  0  0  0  0  0
  -19.3914   -6.8952  -35.9615 N   0  0  0  0  0  0  0  0  0  0  0  0
  -24.0957   -4.2794  -23.9707 N   0  0  0  0  0  0  0  0  0  0  0  0
  -22.1201   -3.4206  -23.1126 O   0  0  0  0  0  0  0  0  0  0  0  0
  -20.1574   -2.8559  -31.8367 H   0  0  0  0  0  0  0  0  0  0  0  0
  -21.0372   -7.0686  -31.5128 H   0  0  0  0  0  0  0  0  0  0  0  0
  -19.2209   -3.2280  -34.0800 H   0  0  0  0  0  0  0  0  0  0  0  0
  -20.0993   -7.4329  -33.7572 H   0  0  0  0  0  0  0  0  0  0  0  0
  -15.6200   -4.3915  -26.6977 H   0  0  0  0  0  0  0  0  0  0  0  0
  -24.1690   -3.9874  -28.6914 H   0  0  0  0  0  0  0  0  0  0  0  0
  -20.1468   -4.5006  -24.4699 H   0  0  0  0  0  0  0  0  0  0  0  0
  -16.4594   -7.0018  -26.4943 H   0  0  0  0  0  0  0  0  0  0  0  0
  -18.8480   -9.4486  -37.6359 H   0  0  0  0  0  0  0  0  0  0  0  0
  -21.3013   -9.3140  -36.3080 H   0  0  0  0  0  0  0  0  0  0  0  0
  -23.4955   -3.2983  -31.6144 H   0  0  0  0  0  0  0  0  0  0  0  0
  -23.1462   -4.9901  -32.0469 H   0  0  0  0  0  0  0  0  0  0  0  0
  -24.4978   -4.6248  -30.9759 H   0  0  0  0  0  0  0  0  0  0  0  0
  -18.8104   -6.2029  -29.2705 H   0  0  0  0  0  0  0  0  0  0  0  0
  -18.6244   -4.7327  -30.2581 H   0  0  0  0  0  0  0  0  0  0  0  0
  -18.3345   -4.6590  -28.5209 H   0  0  0  0  0  0  0  0  0  0  0  0
  -18.0747   -2.2654  -27.8615 H   0  0  0  0  0  0  0  0  0  0  0  0
  -18.9328   -2.2607  -26.3010 H   0  0  0  0  0  0  0  0  0  0  0  0
  -17.1886   -2.0078  -26.3383 H   0  0  0  0  0  0  0  0  0  0  0  0
  -24.8878   -5.0097  -22.1821 H   0  0  0  0  0  0  0  0  0  0  0  0
  -24.4719   -3.2623  -22.1868 H   0  0  0  0  0  0  0  0  0  0  0  0
  -25.9262   -3.8418  -23.0675 H   0  0  0  0  0  0  0  0  0  0  0  0
  -19.3790   -4.8196  -36.1463 H   0  0  0  0  0  0  0  0  0  0  0  0
  -17.9306   -5.5085  -35.4283 H   0  0  0  0  0  0  0  0  0  0  0  0
  -24.5728   -4.6324  -24.7938 H   0  0  0  0  0  0  0  0  0  0  0  0
  1  3  1  0  0  0  0
  1 12  2  0  0  0  0
  2  4  2  0  0  0  0
  2 12  1  0  0  0  0
  3 14  2  0  0  0  0
  4 14  1  0  0  0  0
  5  8  1  0  0  0  0
  5 20  2  0  0  0  0
  6 15  2  0  0  0  0
  6 17  1  0  0  0  0
  7 18  1  0  0  0  0
  7 19  2  0  0  0  0
  8 27  2  0  0  0  0
  9 10  1  0  0  0  0
  9 28  2  0  0  0  0
 10 29  2  0  0  0  0
 11 16  1  0  0  0  0
 11 17  1  0  0  0  0
 11 18  2  0  0  0  0
 12 13  1  0  0  0  0
 13 15  1  0  0  0  0
 13 16  2  0  0  0  0
 14 26  1  0  0  0  0
 15 22  1  0  0  0  0
 16 23  1  0  0  0  0
 17 30  2  0  0  0  0
 18 31  1  0  0  0  0
 19 21  1  0  0  0  0
 19 30  1  0  0  0  0
 20 24  1  0  0  0  0
 20 31  1  0  0  0  0
 21 33  1  0  0  0  0
 21 34  2  0  0  0  0
 25 33  1  0  0  0  0
 26 32  1  0  0  0  0
 27 31  1  0  0  0  0
 28 32  1  0  0  0  0
 29 32  1  0  0  0  0
  1 35  1  0  0  0  0
  2 36  1  0  0  0  0
  3 37  1  0  0  0  0
  4 38  1  0  0  0  0
  5 39  1  0  0  0  0
  6 40  1  0  0  0  0
  7 41  1  0  0  0  0
  8 42  1  0  0  0  0
  9 43  1  0  0  0  0
 10 44  1  0  0  0  0
 22 45  1  0  0  0  0
 22 46  1  0  0  0  0
 22 47  1  0  0  0  0
 23 48  1  0  0  0  0
 23 49  1  0  0  0  0
 23 50  1  0  0  0  0
 24 51  1  0  0  0  0
 24 52  1  0  0  0  0
 24 53  1  0  0  0  0
 25 54  1  0  0  0  0
 25 55  1  0  0  0  0
 25 56  1  0  0  0  0
 26 57  1  0  0  0  0
 26 58  1  0  0  0  0
 33 59  1  0  0  0  0
M  END
> <SMILES>
CNC(=O)c1cc(c2c(c(c(cc2n1)C)-c1ccc(cc1)Cn1nccn1)C)-n1nccc1C

> <FORMATTED_ID>
H3D-004894

> <MOLFORMULA>
C26H25N7O

> <Exact Mass>
451.21

> <XLogP>
3.65

> <TPSA_NOPS>
90.5

> <s_m_source_file>
ligprep_h3d.sdf

> <i_m_source_file_index>
698

> <i_lp_mmshare_version>
55123

> <i_f3d_flags>
0

> <s_epik_input>
W0NIM11jMVtjSF1bY0hdbm4xLWMyW2NIXWMoQyg9TylbTkhdW0NIM10pbmMoYzIzKVtjSF1jKFtDSDNdKWMoYzNbQ0gzXSktYzRbY0hdW2NIXWMoW2NIXVtjSF00KVtDSDJdbjVuW2NIXVtjSF1uNQ==

> <s_epik_cmdline>
J2VwaWtfcHl0aG9uJywgJy1waHQnLCAnMC41JywgJy1waCcsICc3LjUnLCAnLXRuJywgJzgnLCAnLW1hJywgJzUwMCcsICctaW1hZScsICc8aW5maWxlLm1hZT4nLCAnLW9tYWUnLCAnPG91dGZpbGUubWFlPic=

> <r_lp_tautomer_probability>
1

> <r_epik_Ionization_Penalty>
1.7493e-05

> <r_epik_Ionization_Penalty_Charging>
0

> <r_epik_Ionization_Penalty_Neutral>
1.7493e-05

> <r_epik_State_Penalty>
-0

> <r_epik_Charging_Adjusted_Penalty>
0

> <i_epik_Tot_Q>
0

> <i_epik_Tot_abs_Q>
0

> <s_lp_Force_Field>
S-OPLS

> <r_lp_Energy>
49.9702

> <b_lp_Chiralities_Consistent>
1

> <s_lp_Variant>
ligprep_h3d.sdf:698-1

> <ROCS_ShapeQuery>
_7L13

> <ROCS_TanimotoCombo>
0.764 

> <ROCS_ShapeTanimoto>
0.652 

> <ROCS_ColorTanimoto>
0.112 

> <ROCS_RefTversky>
0.778 

> <ROCS_RefColorTversky>
0.222 

> <ROCS_RefTverskyCombo>
1.000 

> <ROCS_FitTversky>
0.800 

> <ROCS_FitColorTversky>
0.185 

> <ROCS_FitTverskyCombo>
0.986 

> <ROCS_ColorScore>
-2.024

> <ROCS_Overlap>
1289.874

> <ROCS_Rank>
392                 

$$$$
ligprep_h3d.sdf:2539_1609
  -OEChem-08212117123D

 61 65  0     0  0  0  0  0  0999 V2000
  -25.1966   -5.0814  -24.0021 C   0  0  0  0  0  0  0  0  0  0  0  0
  -24.0888   -4.4495  -23.4323 C   0  0  0  0  0  0  0  0  0  0  0  0
  -18.9138   -3.1588  -25.8261 C   0  0  0  0  0  0  0  0  0  0  0  0
  -20.2963   -5.0598  -26.3845 C   0  0  0  0  0  0  0  0  0  0  0  0
  -17.8526   -4.0160  -25.5352 C   0  0  0  0  0  0  0  0  0  0  0  0
  -19.2351   -5.9170  -26.0936 C   0  0  0  0  0  0  0  0  0  0  0  0
  -20.3326   -4.9340  -35.0850 C   0  0  0  0  0  0  0  0  0  0  0  0
  -25.3549   -5.1450  -25.3922 C   0  0  0  0  0  0  0  0  0  0  0  0
  -23.1009   -3.8596  -24.2277 C   0  0  0  0  0  0  0  0  0  0  0  0
  -19.5514   -5.9888  -35.5568 C   0  0  0  0  0  0  0  0  0  0  0  0
  -20.2520   -7.3452  -33.6842 C   0  0  0  0  0  0  0  0  0  0  0  0
  -20.1357   -3.6807  -26.2507 C   0  0  0  0  0  0  0  0  0  0  0  0
  -18.0132   -5.3951  -25.6690 C   0  0  0  0  0  0  0  0  0  0  0  0
  -21.0735   -5.0847  -33.9127 C   0  0  0  0  0  0  0  0  0  0  0  0
  -24.3720   -4.5574  -26.2065 C   0  0  0  0  0  0  0  0  0  0  0  0
  -23.2794   -3.9351  -25.6094 C   0  0  0  0  0  0  0  0  0  0  0  0
  -21.0332   -6.2904  -33.2124 C   0  0  0  0  0  0  0  0  0  0  0  0
  -19.5111   -7.1944  -34.8564 C   0  0  0  0  0  0  0  0  0  0  0  0
  -23.1737   -3.8288  -27.8167 C   0  0  0  0  0  0  0  0  0  0  0  0
  -21.6918   -4.5907  -29.6569 C   0  0  0  0  0  0  0  0  0  0  0  0
  -23.7827   -3.2617  -30.1556 C   0  0  0  0  0  0  0  0  0  0  0  0
  -21.1813   -4.2964  -31.0616 C   0  0  0  0  0  0  0  0  0  0  0  0
  -23.2560   -2.9772  -31.5564 C   0  0  0  0  0  0  0  0  0  0  0  0
  -22.6359   -3.4854  -29.1567 C   0  0  0  0  0  0  0  0  0  0  0  0
  -21.2810   -2.7566  -26.5651 C   0  0  0  0  0  0  0  0  0  0  0  0
  -21.9076   -3.9393  -33.4195 C   0  0  0  0  0  0  0  0  0  0  0  0
  -16.8776   -6.3110  -25.3593 C   0  0  0  0  0  0  0  0  0  0  0  0
  -24.2890   -4.4815  -27.5780 N   0  0  0  0  0  0  0  0  0  0  0  0
  -22.5296   -3.4782  -26.6628 N   0  0  0  0  0  0  0  0  0  0  0  0
  -22.3543   -4.1069  -31.9932 N   0  3  0  0  0  0  0  0  0  0  0  0
  -21.7514   -6.4543  -32.0663 O   0  0  0  0  0  0  0  0  0  0  0  0
  -15.7448   -5.6620  -24.9573 F   0  0  0  0  0  0  0  0  0  0  0  0
  -17.1506   -7.2023  -24.3610 F   0  0  0  0  0  0  0  0  0  0  0  0
  -16.5048   -7.0668  -26.4330 F   0  0  0  0  0  0  0  0  0  0  0  0
  -18.5483   -8.4955  -35.4405 Cl  0  0  0  0  0  0  0  0  0  0  0  0
  -25.9471   -5.5319  -23.3577 H   0  0  0  0  0  0  0  0  0  0  0  0
  -23.9920   -4.4148  -22.3498 H   0  0  0  0  0  0  0  0  0  0  0  0
  -18.7796   -2.0856  -25.7187 H   0  0  0  0  0  0  0  0  0  0  0  0
  -21.2446   -5.4748  -26.7161 H   0  0  0  0  0  0  0  0  0  0  0  0
  -16.9038   -3.6003  -25.2067 H   0  0  0  0  0  0  0  0  0  0  0  0
  -19.3686   -6.9903  -26.2005 H   0  0  0  0  0  0  0  0  0  0  0  0
  -20.3565   -3.9982  -35.6371 H   0  0  0  0  0  0  0  0  0  0  0  0
  -26.2189   -5.6389  -25.8248 H   0  0  0  0  0  0  0  0  0  0  0  0
  -22.2409   -3.3701  -23.7845 H   0  0  0  0  0  0  0  0  0  0  0  0
  -18.9778   -5.8571  -36.4706 H   0  0  0  0  0  0  0  0  0  0  0  0
  -20.2253   -8.2823  -33.1329 H   0  0  0  0  0  0  0  0  0  0  0  0
  -22.2054   -5.5617  -29.6502 H   0  0  0  0  0  0  0  0  0  0  0  0
  -20.8368   -4.6890  -28.9763 H   0  0  0  0  0  0  0  0  0  0  0  0
  -24.4063   -2.4206  -29.8274 H   0  0  0  0  0  0  0  0  0  0  0  0
  -24.4410   -4.1407  -30.1832 H   0  0  0  0  0  0  0  0  0  0  0  0
  -20.5779   -3.3823  -31.0932 H   0  0  0  0  0  0  0  0  0  0  0  0
  -20.5919   -5.1378  -31.4405 H   0  0  0  0  0  0  0  0  0  0  0  0
  -24.0814   -2.9193  -32.2736 H   0  0  0  0  0  0  0  0  0  0  0  0
  -22.6719   -2.0509  -31.5935 H   0  0  0  0  0  0  0  0  0  0  0  0
  -22.0657   -2.5525  -29.0600 H   0  0  0  0  0  0  0  0  0  0  0  0
  -21.3902   -1.9847  -25.7936 H   0  0  0  0  0  0  0  0  0  0  0  0
  -21.1154   -2.2285  -27.5120 H   0  0  0  0  0  0  0  0  0  0  0  0
  -21.3526   -2.9962  -33.4665 H   0  0  0  0  0  0  0  0  0  0  0  0
  -22.8151   -3.8228  -34.0217 H   0  0  0  0  0  0  0  0  0  0  0  0
  -22.9117   -4.9717  -31.9631 H   0  0  0  0  0  0  0  0  0  0  0  0
  -21.6124   -7.3451  -31.7084 H   0  0  0  0  0  0  0  0  0  0  0  0
  1  2  2  0  0  0  0
  1  8  1  0  0  0  0
  2  9  1  0  0  0  0
  3  5  1  0  0  0  0
  3 12  2  0  0  0  0
  4  6  2  0  0  0  0
  4 12  1  0  0  0  0
  5 13  2  0  0  0  0
  6 13  1  0  0  0  0
  7 10  1  0  0  0  0
  7 14  2  0  0  0  0
  8 15  2  0  0  0  0
  9 16  2  0  0  0  0
 10 18  2  0  0  0  0
 11 17  2  0  0  0  0
 11 18  1  0  0  0  0
 12 25  1  0  0  0  0
 13 27  1  0  0  0  0
 14 17  1  0  0  0  0
 14 26  1  0  0  0  0
 15 16  1  0  0  0  0
 15 28  1  0  0  0  0
 16 29  1  0  0  0  0
 17 31  1  0  0  0  0
 18 35  1  0  0  0  0
 19 24  1  0  0  0  0
 19 28  2  0  0  0  0
 19 29  1  0  0  0  0
 20 22  1  0  0  0  0
 20 24  1  0  0  0  0
 21 23  1  0  0  0  0
 21 24  1  0  0  0  0
 22 30  1  0  0  0  0
 23 30  1  0  0  0  0
 25 29  1  0  0  0  0
 26 30  1  0  0  0  0
 27 32  1  0  0  0  0
 27 33  1  0  0  0  0
 27 34  1  0  0  0  0
  1 36  1  0  0  0  0
  2 37  1  0  0  0  0
  3 38  1  0  0  0  0
  4 39  1  0  0  0  0
  5 40  1  0  0  0  0
  6 41  1  0  0  0  0
  7 42  1  0  0  0  0
  8 43  1  0  0  0  0
  9 44  1  0  0  0  0
 10 45  1  0  0  0  0
 11 46  1  0  0  0  0
 20 47  1  0  0  0  0
 20 48  1  0  0  0  0
 21 49  1  0  0  0  0
 21 50  1  0  0  0  0
 22 51  1  0  0  0  0
 22 52  1  0  0  0  0
 23 53  1  0  0  0  0
 23 54  1  0  0  0  0
 24 55  1  0  0  0  0
 25 56  1  0  0  0  0
 25 57  1  0  0  0  0
 26 58  1  0  0  0  0
 26 59  1  0  0  0  0
 30 60  1  0  0  0  0
 31 61  1  0  0  0  0
M  CHG  1  30   1
M  END
> <SMILES>
Oc1cc(ccc1CN1CCC(CC1)c1nc2ccccc2n1Cc1ccc(cc1)C(F)(F)F)Cl

> <FORMATTED_ID>
H3D-006162

> <MOLFORMULA>
C27H25ClF3N3O

> <Exact Mass>
499.16

> <XLogP>
8.13

> <TPSA_NOPS>
41.3

> <s_m_source_file>
ligprep_h3d.sdf

> <i_m_source_file_index>
2539

> <i_lp_mmshare_version>
55123

> <i_f3d_flags>
0

> <s_epik_input>
W09IXWMxW2NIXWMoQ2wpW2NIXVtjSF1jMVtDSDJdTjJbQ0gyXVtDSDJdW0NIXShbQ0gyXVtDSDJdMiljKG4zKW4oYyhjMzQpW2NIXVtjSF1bY0hdW2NIXTQpW0NIMl1jNVtjSF1bY0hdYyhDKEYpKEYpRilbY0hdW2NIXTU=

> <s_epik_cmdline>
J2VwaWtfcHl0aG9uJywgJy1waHQnLCAnMC41JywgJy1waCcsICc3LjUnLCAnLXRuJywgJzgnLCAnLW1hJywgJzUwMCcsICctaW1hZScsICc8aW5maWxlLm1hZT4nLCAnLW9tYWUnLCAnPG91dGZpbGUubWFlPic=

> <r_lp_tautomer_probability>
1

> <r_epik_Ionization_Penalty>
0.609276

> <r_epik_Ionization_Penalty_Charging>
0.0829309

> <r_epik_Ionization_Penalty_Neutral>
0.526345

> <r_epik_State_Penalty>
0.525438

> <r_epik_Charging_Adjusted_Penalty>
0.608369

> <i_epik_Tot_Q>
1

> <i_epik_Tot_abs_Q>
1

> <s_lp_Force_Field>
S-OPLS

> <r_lp_Energy>
40.0029

> <b_lp_Chiralities_Consistent>
1

> <s_lp_Variant>
ligprep_h3d.sdf:2539-2

> <ROCS_ShapeQuery>
_7L13

> <ROCS_TanimotoCombo>
0.724 

> <ROCS_ShapeTanimoto>
0.653 

> <ROCS_ColorTanimoto>
0.071 

> <ROCS_RefTversky>
0.778 

> <ROCS_RefColorTversky>
0.139 

> <ROCS_RefTverskyCombo>
0.917 

> <ROCS_FitTversky>
0.802 

> <ROCS_FitColorTversky>
0.126 

> <ROCS_FitTverskyCombo>
0.929 

> <ROCS_ColorScore>
-1.257

> <ROCS_Overlap>
1289.689

> <ROCS_Rank>
393                 

$$$$
ligprep_h3d.sdf:5815_653
  -OEChem-08212117123D

 55 59  0     0  0  0  0  0  0999 V2000
  -19.7794   -7.8829  -35.7778 C   0  0  0  0  0  0  0  0  0  0  0  0
  -18.9015   -7.1623  -36.5875 C   0  0  0  0  0  0  0  0  0  0  0  0
  -19.7819   -4.8299  -25.4661 C   0  0  0  0  0  0  0  0  0  0  0  0
  -20.4305   -7.2500  -34.7189 C   0  0  0  0  0  0  0  0  0  0  0  0
  -21.0363   -4.7929  -24.8572 C   0  0  0  0  0  0  0  0  0  0  0  0
  -19.6702   -4.6493  -26.8448 C   0  0  0  0  0  0  0  0  0  0  0  0
  -18.6747   -5.8087  -36.3383 C   0  0  0  0  0  0  0  0  0  0  0  0
  -23.6639   -3.4499  -31.9341 C   0  0  0  0  0  0  0  0  0  0  0  0
  -20.4878   -5.1336  -32.0573 C   0  0  0  0  0  0  0  0  0  0  0  0
  -22.0674   -4.3948  -27.0056 C   0  0  0  0  0  0  0  0  0  0  0  0
  -24.7477   -4.8823  -25.4802 C   0  0  0  0  0  0  0  0  0  0  0  0
  -23.6903   -4.1179  -23.7103 C   0  0  0  0  0  0  0  0  0  0  0  0
  -23.7423   -3.0714  -30.6077 C   0  0  0  0  0  0  0  0  0  0  0  0
  -21.5045   -4.4250  -31.3523 C   0  0  0  0  0  0  0  0  0  0  0  0
  -22.1790   -4.5754  -25.6269 C   0  0  0  0  0  0  0  0  0  0  0  0
  -20.2037   -5.8964  -34.4698 C   0  0  0  0  0  0  0  0  0  0  0  0
  -23.4704   -4.5367  -24.9998 C   0  0  0  0  0  0  0  0  0  0  0  0
  -22.5080   -4.1389  -32.2781 C   0  0  0  0  0  0  0  0  0  0  0  0
  -20.8130   -4.4318  -27.6145 C   0  0  0  0  0  0  0  0  0  0  0  0
  -19.3258   -5.1758  -35.2795 C   0  0  0  0  0  0  0  0  0  0  0  0
  -20.8886   -5.2590  -33.3672 C   0  0  0  0  0  0  0  0  0  0  0  0
  -21.6371   -4.0178  -30.0255 C   0  0  0  0  0  0  0  0  0  0  0  0
  -25.7455   -3.9105  -22.2915 C   0  0  0  0  0  0  0  0  0  0  0  0
  -22.8807   -4.5658  -34.7148 C   0  0  0  0  0  0  0  0  0  0  0  0
  -18.0087   -3.5279  -34.1815 C   0  0  0  0  0  0  0  0  0  0  0  0
  -25.7079   -4.6991  -24.5700 N   0  0  0  0  0  0  0  0  0  0  0  0
  -25.0336   -4.2338  -23.5047 N   0  0  0  0  0  0  0  0  0  0  0  0
  -22.1099   -4.6548  -33.4904 N   0  0  0  0  0  0  0  0  0  0  0  0
  -22.7647   -3.3598  -29.7441 N   0  3  0  0  0  0  0  0  0  0  0  0
  -20.6986   -4.2483  -29.0141 N   0  0  0  0  0  0  0  0  0  0  0  0
  -19.0848   -3.8517  -35.0586 O   0  0  0  0  0  0  0  0  0  0  0  0
  -19.9552   -8.9372  -35.9712 H   0  0  0  0  0  0  0  0  0  0  0  0
  -18.3949   -7.6551  -37.4122 H   0  0  0  0  0  0  0  0  0  0  0  0
  -18.8921   -4.9995  -24.8667 H   0  0  0  0  0  0  0  0  0  0  0  0
  -21.1120   -7.8264  -34.0982 H   0  0  0  0  0  0  0  0  0  0  0  0
  -21.1071   -4.9352  -23.7816 H   0  0  0  0  0  0  0  0  0  0  0  0
  -18.6876   -4.6807  -27.3085 H   0  0  0  0  0  0  0  0  0  0  0  0
  -17.9898   -5.2533  -36.9732 H   0  0  0  0  0  0  0  0  0  0  0  0
  -24.4483   -3.2230  -32.6447 H   0  0  0  0  0  0  0  0  0  0  0  0
  -19.5615   -5.5101  -31.6430 H   0  0  0  0  0  0  0  0  0  0  0  0
  -22.9556   -4.2256  -27.6115 H   0  0  0  0  0  0  0  0  0  0  0  0
  -25.0226   -5.2605  -26.4549 H   0  0  0  0  0  0  0  0  0  0  0  0
  -23.0248   -3.7559  -22.9377 H   0  0  0  0  0  0  0  0  0  0  0  0
  -24.5834   -2.5291  -30.1961 H   0  0  0  0  0  0  0  0  0  0  0  0
  -26.0479   -2.8614  -22.3472 H   0  0  0  0  0  0  0  0  0  0  0  0
  -26.6229   -4.5569  -22.2008 H   0  0  0  0  0  0  0  0  0  0  0  0
  -25.0891   -4.0751  -21.4324 H   0  0  0  0  0  0  0  0  0  0  0  0
  -22.5920   -3.6452  -35.2289 H   0  0  0  0  0  0  0  0  0  0  0  0
  -22.6697   -5.4363  -35.3420 H   0  0  0  0  0  0  0  0  0  0  0  0
  -23.9466   -4.5503  -34.4705 H   0  0  0  0  0  0  0  0  0  0  0  0
  -17.9246   -2.4420  -34.0922 H   0  0  0  0  0  0  0  0  0  0  0  0
  -17.0784   -3.9449  -34.5752 H   0  0  0  0  0  0  0  0  0  0  0  0
  -18.2106   -3.9575  -33.1974 H   0  0  0  0  0  0  0  0  0  0  0  0
  -22.8880   -3.0500  -28.7798 H   0  0  0  0  0  0  0  0  0  0  0  0
  -19.7334   -4.2961  -29.3419 H   0  0  0  0  0  0  0  0  0  0  0  0
  1  2  2  0  0  0  0
  1  4  1  0  0  0  0
  2  7  1  0  0  0  0
  3  5  2  0  0  0  0
  3  6  1  0  0  0  0
  4 16  2  0  0  0  0
  5 15  1  0  0  0  0
  6 19  2  0  0  0  0
  7 20  2  0  0  0  0
  8 13  1  0  0  0  0
  8 18  2  0  0  0  0
  9 14  1  0  0  0  0
  9 21  2  0  0  0  0
 10 15  2  0  0  0  0
 10 19  1  0  0  0  0
 11 17  1  0  0  0  0
 11 26  2  0  0  0  0
 12 17  2  0  0  0  0
 12 27  1  0  0  0  0
 13 29  2  0  0  0  0
 14 18  1  0  0  0  0
 14 22  2  0  0  0  0
 15 17  1  0  0  0  0
 16 20  1  0  0  0  0
 16 21  1  0  0  0  0
 18 28  1  0  0  0  0
 19 30  1  0  0  0  0
 20 31  1  0  0  0  0
 21 28  1  0  0  0  0
 22 29  1  0  0  0  0
 22 30  1  0  0  0  0
 23 27  1  0  0  0  0
 24 28  1  0  0  0  0
 25 31  1  0  0  0  0
 26 27  1  0  0  0  0
  1 32  1  0  0  0  0
  2 33  1  0  0  0  0
  3 34  1  0  0  0  0
  4 35  1  0  0  0  0
  5 36  1  0  0  0  0
  6 37  1  0  0  0  0
  7 38  1  0  0  0  0
  8 39  1  0  0  0  0
  9 40  1  0  0  0  0
 10 41  1  0  0  0  0
 11 42  1  0  0  0  0
 12 43  1  0  0  0  0
 13 44  1  0  0  0  0
 23 45  1  0  0  0  0
 23 46  1  0  0  0  0
 23 47  1  0  0  0  0
 24 48  1  0  0  0  0
 24 49  1  0  0  0  0
 24 50  1  0  0  0  0
 25 51  1  0  0  0  0
 25 52  1  0  0  0  0
 25 53  1  0  0  0  0
 29 54  1  0  0  0  0
 30 55  1  0  0  0  0
M  CHG  1  29   1
M  END
> <SMILES>
COc1ccccc1-c1cc2c(nccc2n1C)Nc1cccc(c1)-c1cnn(c1)C

> <FORMATTED_ID>
H3D-000121

> <MOLFORMULA>
C25H23N5O

> <Exact Mass>
409.19

> <XLogP>
5.88

> <TPSA_NOPS>
56.9

> <s_m_source_file>
ligprep_h3d.sdf

> <i_m_source_file_index>
5815

> <i_lp_mmshare_version>
55123

> <i_f3d_flags>
0

> <s_epik_input>
W0NIM11PYzFbY0hdW2NIXVtjSF1bY0hdYzEtYyhbY0hdMiluKFtDSDNdKWMoYzIzKVtjSF1bY0hdbmMzW05IXWM0W2NIXVtjSF1bY0hdYyhbY0hdNCktYzVbY0hdbm4oW2NIXTUpW0NIM10=

> <s_epik_cmdline>
J2VwaWtfcHl0aG9uJywgJy1waHQnLCAnMC41JywgJy1waCcsICc3LjUnLCAnLXRuJywgJzgnLCAnLW1hJywgJzUwMCcsICctaW1hZScsICc8aW5maWxlLm1hZT4nLCAnLW9tYWUnLCAnPG91dGZpbGUubWFlPic=

> <r_lp_tautomer_probability>
1

> <r_epik_Ionization_Penalty>
0.0615064

> <r_epik_Ionization_Penalty_Charging>
0.0614281

> <r_epik_Ionization_Penalty_Neutral>
7.82785e-05

> <r_epik_State_Penalty>
0.0533191

> <r_epik_Charging_Adjusted_Penalty>
0.114747

> <i_epik_Tot_Q>
1

> <i_epik_Tot_abs_Q>
1

> <s_lp_Force_Field>
S-OPLS

> <r_lp_Energy>
49.2817

> <b_lp_Chiralities_Consistent>
1

> <s_lp_Variant>
ligprep_h3d.sdf:5815-1

> <ROCS_ShapeQuery>
_7L13

> <ROCS_TanimotoCombo>
0.834 

> <ROCS_ShapeTanimoto>
0.698 

> <ROCS_ColorTanimoto>
0.136 

> <ROCS_RefTversky>
0.778 

> <ROCS_RefColorTversky>
0.251 

> <ROCS_RefTverskyCombo>
1.029 

> <ROCS_FitTversky>
0.871 

> <ROCS_FitColorTversky>
0.228 

> <ROCS_FitTverskyCombo>
1.099 

> <ROCS_ColorScore>
-2.276

> <ROCS_Overlap>
1283.981

> <ROCS_Rank>
394                 

$$$$
ligprep_h3d.sdf:4595_58
  -OEChem-08212117123D

 60 64  0     1  0  0  0  0  0999 V2000
  -18.9186   -4.8135  -26.6650 C   0  0  0  0  0  0  0  0  0  0  0  0
  -24.7738   -4.9311  -25.3813 C   0  0  0  0  0  0  0  0  0  0  0  0
  -23.3375   -4.1348  -23.6094 C   0  0  0  0  0  0  0  0  0  0  0  0
  -25.6796   -4.5394  -23.1760 C   0  0  0  0  0  0  0  0  0  0  0  0
  -18.4834   -4.6693  -27.9746 C   0  0  0  0  0  0  0  0  0  0  0  0
  -23.5143   -4.5308  -24.9351 C   0  0  0  0  0  0  0  0  0  0  0  0
  -21.1509   -4.4145  -27.5755 C   0  0  0  0  0  0  0  0  0  0  0  0
  -20.2913   -4.6743  -26.5131 C   0  0  0  0  0  0  0  0  0  0  0  0
  -25.8564   -4.9354  -24.5018 C   0  0  0  0  0  0  0  0  0  0  0  0
  -24.4201   -4.1390  -22.7298 C   0  0  0  0  0  0  0  0  0  0  0  0
  -20.6129   -4.2868  -28.8565 C   0  0  0  0  0  0  0  0  0  0  0  0
  -22.3944   -4.5264  -25.8447 C   0  0  0  0  0  0  0  0  0  0  0  0
  -23.1316   -2.5500  -30.9706 C   0  0  0  0  0  0  0  0  0  0  0  0
  -23.2741   -3.5313  -32.1286 C   0  0  0  0  0  0  0  0  0  0  0  0
  -22.6706   -3.2536  -29.6973 C   0  0  0  0  0  0  0  0  0  0  0  0
  -18.8456   -4.9077  -35.4713 C   0  0  0  0  0  0  0  0  0  0  0  0
  -19.2624   -7.2654  -35.1325 C   0  0  0  0  0  0  0  0  0  0  0  0
  -21.4946   -4.9783  -31.0661 C   0  0  0  0  0  0  0  0  0  0  0  0
  -20.2562   -4.5561  -35.0103 C   0  0  0  0  0  0  0  0  0  0  0  0
  -20.6850   -6.9823  -34.6617 C   0  0  0  0  0  0  0  0  0  0  0  0
  -21.9572   -4.2807  -32.3548 C   0  0  1  0  0  0  0  0  0  0  0  0
  -17.4565   -6.5494  -36.5578 C   0  0  0  0  0  0  0  0  0  0  0  0
  -22.0981   -5.2886  -33.4936 C   0  0  0  0  0  0  0  0  0  0  0  0
  -19.2761   -4.4162  -29.0454 N   0  0  0  0  0  0  0  0  0  0  0  0
  -22.4530   -4.3257  -27.1424 N   0  0  0  0  0  0  0  0  0  0  0  0
  -21.1132   -4.7409  -25.4178 N   0  0  0  0  0  0  0  0  0  0  0  0
  -21.4462   -4.0247  -29.9508 N   0  0  0  0  0  0  0  0  0  0  0  0
  -18.8052   -6.2427  -36.0825 N   0  0  0  0  0  0  0  0  0  0  0  0
  -20.7367   -5.6082  -34.0427 N   0  3  0  0  0  0  0  0  0  0  0  0
  -27.0657   -5.3199  -24.9305 F   0  0  0  0  0  0  0  0  0  0  0  0
  -24.2500   -3.7596  -21.4567 F   0  0  0  0  0  0  0  0  0  0  0  0
  -18.2489   -5.0150  -25.8401 H   0  0  0  0  0  0  0  0  0  0  0  0
  -24.9283   -5.2425  -26.4116 H   0  0  0  0  0  0  0  0  0  0  0  0
  -22.3617   -3.8207  -23.2461 H   0  0  0  0  0  0  0  0  0  0  0  0
  -26.5225   -4.5430  -22.4917 H   0  0  0  0  0  0  0  0  0  0  0  0
  -17.4263   -4.7591  -28.2085 H   0  0  0  0  0  0  0  0  0  0  0  0
  -22.4142   -1.7638  -31.2374 H   0  0  0  0  0  0  0  0  0  0  0  0
  -24.0923   -2.0550  -30.7883 H   0  0  0  0  0  0  0  0  0  0  0  0
  -24.0824   -4.2409  -31.9113 H   0  0  0  0  0  0  0  0  0  0  0  0
  -23.5597   -2.9864  -33.0360 H   0  0  0  0  0  0  0  0  0  0  0  0
  -22.4904   -2.4974  -28.9230 H   0  0  0  0  0  0  0  0  0  0  0  0
  -23.4617   -3.9210  -29.3315 H   0  0  0  0  0  0  0  0  0  0  0  0
  -18.5336   -4.1562  -36.2067 H   0  0  0  0  0  0  0  0  0  0  0  0
  -18.1499   -4.8394  -34.6243 H   0  0  0  0  0  0  0  0  0  0  0  0
  -18.5888   -7.3279  -34.2673 H   0  0  0  0  0  0  0  0  0  0  0  0
  -19.2556   -8.2484  -35.6189 H   0  0  0  0  0  0  0  0  0  0  0  0
  -22.1740   -5.8039  -30.8148 H   0  0  0  0  0  0  0  0  0  0  0  0
  -20.4992   -5.4105  -31.2328 H   0  0  0  0  0  0  0  0  0  0  0  0
  -20.2632   -3.5972  -34.4818 H   0  0  0  0  0  0  0  0  0  0  0  0
  -20.9646   -4.5199  -35.8461 H   0  0  0  0  0  0  0  0  0  0  0  0
  -21.4038   -7.0052  -35.4891 H   0  0  0  0  0  0  0  0  0  0  0  0
  -20.9881   -7.6999  -33.8922 H   0  0  0  0  0  0  0  0  0  0  0  0
  -21.1871   -3.5549  -32.6519 H   0  0  0  0  0  0  0  0  0  0  0  0
  -17.4460   -7.5513  -37.0116 H   0  0  0  0  0  0  0  0  0  0  0  0
  -17.1539   -5.8040  -37.3080 H   0  0  0  0  0  0  0  0  0  0  0  0
  -16.7547   -6.5231  -35.7111 H   0  0  0  0  0  0  0  0  0  0  0  0
  -22.6911   -4.8858  -34.3193 H   0  0  0  0  0  0  0  0  0  0  0  0
  -22.5344   -6.2301  -33.1486 H   0  0  0  0  0  0  0  0  0  0  0  0
  -20.8201   -4.9176  -24.4657 H   0  0  0  0  0  0  0  0  0  0  0  0
  -20.0897   -5.6066  -33.2421 H   0  0  0  0  0  0  0  0  0  0  0  0
  1  5  2  0  0  0  0
  1  8  1  0  0  0  0
  2  6  2  0  0  0  0
  2  9  1  0  0  0  0
  3  6  1  0  0  0  0
  3 10  2  0  0  0  0
  4  9  2  0  0  0  0
  4 10  1  0  0  0  0
  5 24  1  0  0  0  0
  6 12  1  0  0  0  0
  7  8  2  0  0  0  0
  7 11  1  0  0  0  0
  7 25  1  0  0  0  0
  8 26  1  0  0  0  0
  9 30  1  0  0  0  0
 10 31  1  0  0  0  0
 11 24  2  0  0  0  0
 11 27  1  0  0  0  0
 12 25  2  0  0  0  0
 12 26  1  0  0  0  0
 13 14  1  0  0  0  0
 13 15  1  0  0  0  0
 14 21  1  0  0  0  0
 15 27  1  0  0  0  0
 16 19  1  0  0  0  0
 16 28  1  0  0  0  0
 17 20  1  0  0  0  0
 17 28  1  0  0  0  0
 18 21  1  0  0  0  0
 18 27  1  0  0  0  0
 19 29  1  0  0  0  0
 20 29  1  0  0  0  0
 21 23  1  0  0  0  0
 22 28  1  0  0  0  0
 23 29  1  0  0  0  0
  1 32  1  0  0  0  0
  2 33  1  0  0  0  0
  3 34  1  0  0  0  0
  4 35  1  0  0  0  0
  5 36  1  0  0  0  0
 13 37  1  0  0  0  0
 13 38  1  0  0  0  0
 14 39  1  0  0  0  0
 14 40  1  0  0  0  0
 15 41  1  0  0  0  0
 15 42  1  0  0  0  0
 16 43  1  0  0  0  0
 16 44  1  0  0  0  0
 17 45  1  0  0  0  0
 17 46  1  0  0  0  0
 18 47  1  0  0  0  0
 18 48  1  0  0  0  0
 19 49  1  0  0  0  0
 19 50  1  0  0  0  0
 20 51  1  0  0  0  0
 20 52  1  0  0  0  0
 21 53  1  0  0  0  0
 22 54  1  0  0  0  0
 22 55  1  0  0  0  0
 22 56  1  0  0  0  0
 23 57  1  0  0  0  0
 23 58  1  0  0  0  0
 26 59  1  0  0  0  0
 29 60  1  0  0  0  0
M  CHG  1  29   1
M  END
> <SMILES>
CN1CCN(CC1)C[C@H]1CCCN(C1)c1nccc2[nH]c(nc12)-c1cc(cc(c1)F)F

> <FORMATTED_ID>
H3D-004994

> <MOLFORMULA>
C23H28F2N6

> <Exact Mass>
426.23

> <XLogP>
3.63

> <TPSA_NOPS>
51.3

> <s_m_source_file>
ligprep_h3d.sdf

> <i_m_source_file_index>
4595

> <i_lp_mmshare_version>
55123

> <i_f3d_flags>
0

> <s_epik_input>
W0NIM11OMVtDSDJdW0NIMl1OKFtDSDJdW0NIMl0xKVtDSDJdW0NASF0yW0NIMl1bQ0gyXVtDSDJdTihbQ0gyXTIpYyhuW2NIXVtjSF0zKWMoYzM0KW5jKFtuSF00KS1jNVtjSF1jKEYpW2NIXWMoRilbY0hdNQ==

> <s_epik_cmdline>
J2VwaWtfcHl0aG9uJywgJy1waHQnLCAnMC41JywgJy1waCcsICc3LjUnLCAnLXRuJywgJzgnLCAnLW1hJywgJzUwMCcsICctaW1hZScsICc8aW5maWxlLm1hZT4nLCAnLW9tYWUnLCAnPG91dGZpbGUubWFlPic=

> <r_lp_tautomer_probability>
0.742559

> <r_epik_Ionization_Penalty>
0.202342

> <r_epik_Ionization_Penalty_Charging>
0.201131

> <r_epik_Ionization_Penalty_Neutral>
0.00121079

> <r_epik_State_Penalty>
0.18912

> <r_epik_Charging_Adjusted_Penalty>
0.390252

> <i_epik_Tot_Q>
1

> <i_epik_Tot_abs_Q>
1

> <s_lp_Force_Field>
S-OPLS

> <r_lp_Energy>
69.9587

> <b_lp_Chiralities_Consistent>
1

> <s_lp_Variant>
ligprep_h3d.sdf:4595-1

> <ROCS_ShapeQuery>
_7L13

> <ROCS_TanimotoCombo>
0.946 

> <ROCS_ShapeTanimoto>
0.711 

> <ROCS_ColorTanimoto>
0.234 

> <ROCS_RefTversky>
0.778 

> <ROCS_RefColorTversky>
0.418 

> <ROCS_RefTverskyCombo>
1.195 

> <ROCS_FitTversky>
0.893 

> <ROCS_FitColorTversky>
0.348 

> <ROCS_FitTverskyCombo>
1.241 

> <ROCS_ColorScore>
-3.801

> <ROCS_Overlap>
1282.443

> <ROCS_Rank>
395                 

$$$$
ligprep_h3d.sdf:508_588
  -OEChem-08212117123D

 60 65  0     1  0  0  0  0  0999 V2000
  -20.9033   -5.0219  -29.5826 C   0  0  0  0  0  0  0  0  0  0  0  0
  -21.6760   -4.3430  -30.5285 C   0  0  0  0  0  0  0  0  0  0  0  0
  -21.1546   -4.7978  -28.2079 C   0  0  0  0  0  0  0  0  0  0  0  0
  -22.1863   -3.9353  -27.7625 C   0  0  0  0  0  0  0  0  0  0  0  0
  -22.6587   -3.4852  -30.0836 C   0  0  0  0  0  0  0  0  0  0  0  0
  -22.9454   -3.2502  -28.7400 C   0  0  0  0  0  0  0  0  0  0  0  0
  -21.7657   -4.2559  -31.9304 C   0  0  0  0  0  0  0  0  0  0  0  0
  -19.3493   -3.4897  -26.0909 C   0  0  0  0  0  0  0  0  0  0  0  0
  -19.4342   -5.6962  -24.8879 C   0  0  0  0  0  0  0  0  0  0  0  0
  -17.3630   -4.5541  -25.6767 C   0  0  0  0  0  0  0  0  0  0  0  0
  -20.3002   -5.5476  -27.2145 C   0  0  0  0  0  0  0  0  0  0  0  0
  -19.2731   -5.5094  -34.3350 C   0  0  0  0  0  0  0  0  0  0  0  0
  -19.6476   -4.5049  -33.2507 C   0  0  0  0  0  0  0  0  0  0  0  0
  -21.2415   -6.3249  -33.2467 C   0  0  0  0  0  0  0  0  0  0  0  0
  -23.6957   -3.1518  -25.9565 C   0  0  0  0  0  0  0  0  0  0  0  0
  -21.6111   -4.3999  -25.3527 C   0  0  1  0  0  0  0  0  0  0  0  0
  -19.9258   -6.7993  -33.8608 C   0  0  1  0  0  0  0  0  0  0  0  0
  -23.9492   -3.4516  -24.4762 C   0  0  1  0  0  0  0  0  0  0  0  0
  -22.5322   -5.4194  -24.6196 C   0  0  2  0  0  0  0  0  0  0  0  0
  -20.1877   -4.7978  -25.8722 C   0  0  2  0  0  0  0  0  0  0  0  0
  -25.3646   -3.0547  -24.0740 C   0  0  0  0  0  0  0  0  0  0  0  0
  -22.8691   -6.6960  -25.3827 C   0  0  0  0  0  0  0  0  0  0  0  0
  -19.0758   -7.6841  -35.8565 C   0  0  0  0  0  0  0  0  0  0  0  0
  -22.7236   -3.4121  -32.3260 N   0  0  0  0  0  0  0  0  0  0  0  0
  -18.0649   -3.6799  -26.4007 N   0  5  0  0  0  0  0  0  0  0  0  0
  -18.0667   -5.4692  -24.8925 N   0  0  0  0  0  0  0  0  0  0  0  0
  -22.4352   -3.7606  -26.4002 N   0  0  3  0  0  0  0  0  0  0  0  0
  -20.9391   -4.9811  -32.7620 N   0  0  0  0  0  0  0  0  0  0  0  0
  -19.8733   -2.3770  -26.0597 O   0  0  0  0  0  0  0  0  0  0  0  0
  -19.9379   -6.5930  -24.2192 O   0  0  0  0  0  0  0  0  0  0  0  0
  -16.1305   -4.6042  -25.6894 O   0  0  0  0  0  0  0  0  0  0  0  0
  -23.2866   -2.9238  -31.1528 O   0  0  0  0  0  0  0  0  0  0  0  0
  -23.8088   -4.8524  -24.2428 O   0  0  0  0  0  0  0  0  0  0  0  0
  -20.1588   -7.6860  -34.9370 O   0  0  0  0  0  0  0  0  0  0  0  0
  -23.9580   -2.4295  -28.4308 F   0  0  0  0  0  0  0  0  0  0  0  0
  -20.1327   -5.7214  -29.8962 H   0  0  0  0  0  0  0  0  0  0  0  0
  -20.7285   -6.5456  -27.0534 H   0  0  0  0  0  0  0  0  0  0  0  0
  -19.3096   -5.6948  -27.6644 H   0  0  0  0  0  0  0  0  0  0  0  0
  -19.6287   -5.1871  -35.3178 H   0  0  0  0  0  0  0  0  0  0  0  0
  -18.1842   -5.6286  -34.3678 H   0  0  0  0  0  0  0  0  0  0  0  0
  -18.8923   -4.4738  -32.4576 H   0  0  0  0  0  0  0  0  0  0  0  0
  -19.7600   -3.4987  -33.6721 H   0  0  0  0  0  0  0  0  0  0  0  0
  -22.0599   -6.3137  -33.9761 H   0  0  0  0  0  0  0  0  0  0  0  0
  -21.5201   -6.9563  -32.3944 H   0  0  0  0  0  0  0  0  0  0  0  0
  -24.5142   -3.5350  -26.5802 H   0  0  0  0  0  0  0  0  0  0  0  0
  -23.6682   -2.0581  -26.0446 H   0  0  0  0  0  0  0  0  0  0  0  0
  -21.4616   -3.5677  -24.6242 H   0  0  0  0  0  0  0  0  0  0  0  0
  -19.2916   -7.3213  -33.1149 H   0  0  0  0  0  0  0  0  0  0  0  0
  -23.2416   -2.9207  -23.8530 H   0  0  0  0  0  0  0  0  0  0  0  0
  -22.0691   -5.7171  -23.6894 H   0  0  0  0  0  0  0  0  0  0  0  0
  -26.0892   -3.5822  -24.6940 H   0  0  0  0  0  0  0  0  0  0  0  0
  -25.5013   -1.9815  -24.2046 H   0  0  0  0  0  0  0  0  0  0  0  0
  -25.5397   -3.3099  -23.0291 H   0  0  0  0  0  0  0  0  0  0  0  0
  -23.3402   -6.4462  -26.3323 H   0  0  0  0  0  0  0  0  0  0  0  0
  -23.5530   -7.3081  -24.7964 H   0  0  0  0  0  0  0  0  0  0  0  0
  -21.9594   -7.2632  -25.5751 H   0  0  0  0  0  0  0  0  0  0  0  0
  -19.2889   -8.3784  -36.6730 H   0  0  0  0  0  0  0  0  0  0  0  0
  -18.1588   -7.9812  -35.3413 H   0  0  0  0  0  0  0  0  0  0  0  0
  -18.9543   -6.6763  -36.2605 H   0  0  0  0  0  0  0  0  0  0  0  0
  -17.5158   -6.0327  -24.2529 H   0  0  0  0  0  0  0  0  0  0  0  0
  1  2  2  0  0  0  0
  1  3  1  0  0  0  0
  2  5  1  0  0  0  0
  2  7  1  0  0  0  0
  3  4  2  0  0  0  0
  3 11  1  0  0  0  0
  4  6  1  0  0  0  0
  4 27  1  0  0  0  0
  5  6  2  0  0  0  0
  5 32  1  0  0  0  0
  6 35  1  0  0  0  0
  7 24  2  0  0  0  0
  7 28  1  0  0  0  0
  8 20  1  0  0  0  0
  8 25  1  0  0  0  0
  8 29  2  0  0  0  0
  9 20  1  0  0  0  0
  9 26  1  0  0  0  0
  9 30  2  0  0  0  0
 10 25  1  0  0  0  0
 10 26  1  0  0  0  0
 10 31  2  0  0  0  0
 11 20  1  0  0  0  0
 12 13  1  0  0  0  0
 12 17  1  0  0  0  0
 13 28  1  0  0  0  0
 14 17  1  0  0  0  0
 14 28  1  0  0  0  0
 15 18  1  0  0  0  0
 15 27  1  0  0  0  0
 16 19  1  0  0  0  0
 16 20  1  0  0  0  0
 16 27  1  0  0  0  0
 17 34  1  0  0  0  0
 18 21  1  0  0  0  0
 18 33  1  0  0  0  0
 19 22  1  0  0  0  0
 19 33  1  0  0  0  0
 23 34  1  0  0  0  0
 24 32  1  0  0  0  0
  1 36  1  0  0  0  0
 11 37  1  0  0  0  0
 11 38  1  0  0  0  0
 12 39  1  0  0  0  0
 12 40  1  0  0  0  0
 13 41  1  0  0  0  0
 13 42  1  0  0  0  0
 14 43  1  0  0  0  0
 14 44  1  0  0  0  0
 15 45  1  0  0  0  0
 15 46  1  0  0  0  0
 16 47  1  0  0  0  0
 17 48  1  0  0  0  0
 18 49  1  0  0  0  0
 19 50  1  0  0  0  0
 21 51  1  0  0  0  0
 21 52  1  0  0  0  0
 21 53  1  0  0  0  0
 22 54  1  0  0  0  0
 22 55  1  0  0  0  0
 22 56  1  0  0  0  0
 23 57  1  0  0  0  0
 23 58  1  0  0  0  0
 23 59  1  0  0  0  0
 26 60  1  0  0  0  0
M  CHG  1  25  -1
M  END
> <SMILES>
CO[C@H]1CCN(C1)c1noc2c(c3c(cc12)CC1(C2C(C)OC(C)CN23)C(=O)NC(=O)NC1=O)F

> <FORMATTED_ID>
H3D-004136

> <MOLFORMULA>
C23H26FN5O6

> <Exact Mass>
487.19

> <XLogP>
0.55

> <TPSA_NOPS>
126.5

> <s_m_source_file>
ligprep_h3d.sdf

> <i_m_source_file_index>
508

> <i_lp_mmshare_version>
55123

> <i_f3d_flags>
0

> <s_epik_input>
W0NIM11PW0NASF0xW0NIMl1bQ0gyXU4oW0NIMl0xKWMybm9jKGMzRiljMltjSF1jKFtDSDJdNCljM04oW0NIMl1bQ0BASF0oW0NIM10pT1tDQEhdNVtDSDNdKVtDQEBIXTVDNDZDKD1PKVtOSF1DKD1PKVtOSF1DNj1P

> <s_epik_cmdline>
J2VwaWtfcHl0aG9uJywgJy1waHQnLCAnMC41JywgJy1waCcsICc3LjUnLCAnLXRuJywgJzgnLCAnLW1hJywgJzUwMCcsICctaW1hZScsICc8aW5maWxlLm1hZT4nLCAnLW9tYWUnLCAnPG91dGZpbGUubWFlPic=

> <r_lp_tautomer_probability>
1

> <r_epik_Ionization_Penalty>
0.455393

> <r_epik_Ionization_Penalty_Charging>
0.455373

> <r_epik_Ionization_Penalty_Neutral>
1.99137e-05

> <r_epik_State_Penalty>
0.458483

> <r_epik_Charging_Adjusted_Penalty>
0.913857

> <i_epik_Tot_Q>
-1

> <i_epik_Tot_abs_Q>
1

> <s_lp_Force_Field>
S-OPLS

> <r_lp_Energy>
56.8388

> <b_lp_Chiralities_Consistent>
1

> <s_lp_Variant>
ligprep_h3d.sdf:508-2

> <ROCS_ShapeQuery>
_7L13

> <ROCS_TanimotoCombo>
0.727 

> <ROCS_ShapeTanimoto>
0.636 

> <ROCS_ColorTanimoto>
0.091 

> <ROCS_RefTversky>
0.778 

> <ROCS_RefColorTversky>
0.215 

> <ROCS_RefTverskyCombo>
0.993 

> <ROCS_FitTversky>
0.777 

> <ROCS_FitColorTversky>
0.136 

> <ROCS_FitTverskyCombo>
0.913 

> <ROCS_ColorScore>
-2.004

> <ROCS_Overlap>
1291.633

> <ROCS_Rank>
396                 

$$$$
ligprep_h3d.sdf:5637_836
  -OEChem-08212117123D

 52 56  0     0  0  0  0  0  0999 V2000
  -25.6739   -5.3537  -24.2964 C   0  0  0  0  0  0  0  0  0  0  0  0
  -25.5704   -4.6634  -23.0888 C   0  0  0  0  0  0  0  0  0  0  0  0
  -24.6233   -5.3166  -25.2133 C   0  0  0  0  0  0  0  0  0  0  0  0
  -20.1903   -4.0257  -33.9295 C   0  0  0  0  0  0  0  0  0  0  0  0
  -19.7814   -4.6780  -35.0951 C   0  0  0  0  0  0  0  0  0  0  0  0
  -24.4164   -3.9359  -22.7980 C   0  0  0  0  0  0  0  0  0  0  0  0
  -20.6969   -6.1556  -32.8642 C   0  0  0  0  0  0  0  0  0  0  0  0
  -23.4692   -4.5891  -24.9225 C   0  0  0  0  0  0  0  0  0  0  0  0
  -20.6453   -4.7603  -32.8203 C   0  0  0  0  0  0  0  0  0  0  0  0
  -19.8421   -6.0563  -35.1125 C   0  0  0  0  0  0  0  0  0  0  0  0
  -20.2875   -6.7753  -34.0269 C   0  0  0  0  0  0  0  0  0  0  0  0
  -23.3657   -3.8987  -23.7148 C   0  0  0  0  0  0  0  0  0  0  0  0
  -20.1554   -4.9688  -26.4609 C   0  0  0  0  0  0  0  0  0  0  0  0
  -20.3865   -4.4992  -27.7244 C   0  0  0  0  0  0  0  0  0  0  0  0
  -18.2585   -4.9879  -27.9170 C   0  0  0  0  0  0  0  0  0  0  0  0
  -21.1489   -5.0653  -25.4337 C   0  0  0  0  0  0  0  0  0  0  0  0
  -22.7111   -4.0231  -27.1693 C   0  0  0  0  0  0  0  0  0  0  0  0
  -21.5285   -4.6359  -30.4647 C   0  0  0  0  0  0  0  0  0  0  0  0
  -19.7595   -8.1625  -35.6013 C   0  0  0  0  0  0  0  0  0  0  0  0
  -22.2270   -1.8131  -23.8109 C   0  0  0  0  0  0  0  0  0  0  0  0
  -16.3630   -3.4151  -29.1196 C   0  0  0  0  0  0  0  0  0  0  0  0
  -21.8547   -3.5478  -29.4600 C   0  0  0  0  0  0  0  0  0  0  0  0
  -19.2952   -4.5082  -28.5709 N   0  0  0  0  0  0  0  0  0  0  0  0
  -22.4162   -4.5606  -25.8595 N   0  0  0  0  0  0  0  0  0  0  0  0
  -21.6457   -4.0448  -28.1037 N   0  0  0  0  0  0  0  0  0  0  0  0
  -21.0541   -4.0787  -31.6493 N   0  0  0  0  0  0  0  0  0  0  0  0
  -20.9359   -5.5230  -24.3120 O   0  0  0  0  0  0  0  0  0  0  0  0
  -23.8325   -3.5841  -27.4512 O   0  0  0  0  0  0  0  0  0  0  0  0
  -21.6729   -5.8270  -30.2086 O   0  0  0  0  0  0  0  0  0  0  0  0
  -19.4870   -6.8581  -36.1531 O   0  0  0  0  0  0  0  0  0  0  0  0
  -20.2672   -8.1173  -34.2520 O   0  0  0  0  0  0  0  0  0  0  0  0
  -22.2470   -3.1816  -23.4112 O   0  0  0  0  0  0  0  0  0  0  0  0
  -18.5346   -5.4470  -26.2832 S   0  0  0  0  0  0  0  0  0  0  0  0
  -16.6924   -5.1423  -28.6824 S   0  0  0  0  0  0  0  0  0  0  0  0
  -26.5724   -5.9205  -24.5224 H   0  0  0  0  0  0  0  0  0  0  0  0
  -26.3881   -4.6929  -22.3747 H   0  0  0  0  0  0  0  0  0  0  0  0
  -24.7156   -5.8587  -26.1510 H   0  0  0  0  0  0  0  0  0  0  0  0
  -20.1520   -2.9395  -33.8892 H   0  0  0  0  0  0  0  0  0  0  0  0
  -19.4293   -4.1157  -35.9525 H   0  0  0  0  0  0  0  0  0  0  0  0
  -24.3424   -3.4005  -21.8552 H   0  0  0  0  0  0  0  0  0  0  0  0
  -21.0458   -6.7359  -32.0163 H   0  0  0  0  0  0  0  0  0  0  0  0
  -20.4979   -8.6652  -36.2371 H   0  0  0  0  0  0  0  0  0  0  0  0
  -18.8328   -8.7477  -35.6085 H   0  0  0  0  0  0  0  0  0  0  0  0
  -21.2805   -1.3582  -23.5086 H   0  0  0  0  0  0  0  0  0  0  0  0
  -23.0626   -1.2844  -23.3454 H   0  0  0  0  0  0  0  0  0  0  0  0
  -22.3241   -1.7587  -24.8978 H   0  0  0  0  0  0  0  0  0  0  0  0
  -15.3948   -3.3366  -29.6202 H   0  0  0  0  0  0  0  0  0  0  0  0
  -16.3482   -2.8001  -28.2165 H   0  0  0  0  0  0  0  0  0  0  0  0
  -17.1430   -3.0468  -29.7903 H   0  0  0  0  0  0  0  0  0  0  0  0
  -22.8970   -3.2354  -29.5785 H   0  0  0  0  0  0  0  0  0  0  0  0
  -21.2048   -2.6867  -29.6444 H   0  0  0  0  0  0  0  0  0  0  0  0
  -20.9881   -3.0639  -31.6920 H   0  0  0  0  0  0  0  0  0  0  0  0
  1  2  2  0  0  0  0
  1  3  1  0  0  0  0
  2  6  1  0  0  0  0
  3  8  2  0  0  0  0
  4  5  1  0  0  0  0
  4  9  2  0  0  0  0
  5 10  2  0  0  0  0
  6 12  2  0  0  0  0
  7  9  1  0  0  0  0
  7 11  2  0  0  0  0
  8 12  1  0  0  0  0
  8 24  1  0  0  0  0
  9 26  1  0  0  0  0
 10 11  1  0  0  0  0
 10 30  1  0  0  0  0
 11 31  1  0  0  0  0
 12 32  1  0  0  0  0
 13 14  2  0  0  0  0
 13 16  1  0  0  0  0
 13 33  1  0  0  0  0
 14 23  1  0  0  0  0
 14 25  1  0  0  0  0
 15 23  2  0  0  0  0
 15 33  1  0  0  0  0
 15 34  1  0  0  0  0
 16 24  1  0  0  0  0
 16 27  2  0  0  0  0
 17 24  1  0  0  0  0
 17 25  1  0  0  0  0
 17 28  2  0  0  0  0
 18 22  1  0  0  0  0
 18 26  1  0  0  0  0
 18 29  2  0  0  0  0
 19 30  1  0  0  0  0
 19 31  1  0  0  0  0
 20 32  1  0  0  0  0
 21 34  1  0  0  0  0
 22 25  1  0  0  0  0
  1 35  1  0  0  0  0
  2 36  1  0  0  0  0
  3 37  1  0  0  0  0
  4 38  1  0  0  0  0
  5 39  1  0  0  0  0
  6 40  1  0  0  0  0
  7 41  1  0  0  0  0
 19 42  1  0  0  0  0
 19 43  1  0  0  0  0
 20 44  1  0  0  0  0
 20 45  1  0  0  0  0
 20 46  1  0  0  0  0
 21 47  1  0  0  0  0
 21 48  1  0  0  0  0
 21 49  1  0  0  0  0
 22 50  1  0  0  0  0
 22 51  1  0  0  0  0
 26 52  1  0  0  0  0
M  END
> <SMILES>
COc1ccccc1N1C(=O)N(CC(=O)Nc2ccc3c(c2)OCO3)c2nc(sc2C1=O)SC

> <FORMATTED_ID>
H3D-014227

> <MOLFORMULA>
C22H18N4O6S2

> <Exact Mass>
498.07

> <XLogP>
4.55

> <TPSA_NOPS>
163.8

> <s_m_source_file>
ligprep_h3d.sdf

> <i_m_source_file_index>
5637

> <i_lp_mmshare_version>
55123

> <i_f3d_flags>
0

> <s_epik_input>
W0NIM11PYzFbY0hdW2NIXVtjSF1bY0hdYzEtbihjKD1PKWMoYzIzKXNjKG4zKVNbQ0gzXSljKD1PKW4yW0NIMl1DKD1PKVtOSF1jKFtjSF1bY0hdNClbY0hdYyhjNDUpT1tDSDJdTzU=

> <s_epik_cmdline>
J2VwaWtfcHl0aG9uJywgJy1waHQnLCAnMC41JywgJy1waCcsICc3LjUnLCAnLXRuJywgJzgnLCAnLW1hJywgJzUwMCcsICctaW1hZScsICc8aW5maWxlLm1hZT4nLCAnLW9tYWUnLCAnPG91dGZpbGUubWFlPic=

> <r_lp_tautomer_probability>
1

> <r_epik_Ionization_Penalty>
3.47135e-06

> <r_epik_Ionization_Penalty_Charging>
8.89402e-10

> <r_epik_Ionization_Penalty_Neutral>
3.47047e-06

> <r_epik_State_Penalty>
-0

> <r_epik_Charging_Adjusted_Penalty>
8.89402e-10

> <i_epik_Tot_Q>
0

> <i_epik_Tot_abs_Q>
0

> <s_epik_Chemistry_Notes>
This compound contains an acetal/aminal-like group ( X-CH(R)-Y where X, Y are N, S, or O) that may be acid/base labile, releasing an aldehyde.

> <s_lp_Force_Field>
S-OPLS

> <r_lp_Energy>
71.1805

> <b_lp_Chiralities_Consistent>
1

> <s_lp_Variant>
ligprep_h3d.sdf:5637-1

> <ROCS_ShapeQuery>
_7L13

> <ROCS_TanimotoCombo>
0.857 

> <ROCS_ShapeTanimoto>
0.661 

> <ROCS_ColorTanimoto>
0.196 

> <ROCS_RefTversky>
0.778 

> <ROCS_RefColorTversky>
0.409 

> <ROCS_RefTverskyCombo>
1.187 

> <ROCS_FitTversky>
0.814 

> <ROCS_FitColorTversky>
0.274 

> <ROCS_FitTverskyCombo>
1.089 

> <ROCS_ColorScore>
-3.783

> <ROCS_Overlap>
1288.288

> <ROCS_Rank>
397                 

$$$$
ligprep_h3d.sdf:1313_625
  -OEChem-08212117123D

 65 69  0     1  0  0  0  0  0999 V2000
  -20.1028   -3.7963  -32.2382 C   0  0  0  0  0  0  0  0  0  0  0  0
  -20.6317   -6.1490  -32.0889 C   0  0  0  0  0  0  0  0  0  0  0  0
  -19.5668   -3.9975  -33.5101 C   0  0  0  0  0  0  0  0  0  0  0  0
  -20.0957   -6.3502  -33.3608 C   0  0  0  0  0  0  0  0  0  0  0  0
  -16.6330   -4.8263  -26.6396 C   0  0  0  0  0  0  0  0  0  0  0  0
  -23.0874   -4.1473  -28.7978 C   0  0  0  0  0  0  0  0  0  0  0  0
  -20.7393   -4.4580  -25.3830 C   0  0  0  0  0  0  0  0  0  0  0  0
  -17.0835   -6.1573  -26.5545 C   0  0  0  0  0  0  0  0  0  0  0  0
  -20.9462   -4.5646  -27.7894 C   0  0  0  0  0  0  0  0  0  0  0  0
  -20.6352   -4.8721  -31.5275 C   0  0  0  0  0  0  0  0  0  0  0  0
  -21.1935   -4.6624  -30.2020 C   0  0  0  0  0  0  0  0  0  0  0  0
  -19.5633   -5.2744  -34.0714 C   0  0  0  0  0  0  0  0  0  0  0  0
  -22.5408   -4.3510  -30.0673 C   0  0  0  0  0  0  0  0  0  0  0  0
  -20.3961   -4.7694  -29.0662 C   0  0  0  0  0  0  0  0  0  0  0  0
  -22.3133   -4.2482  -27.6450 C   0  0  0  0  0  0  0  0  0  0  0  0
  -20.1664   -4.6660  -26.6294 C   0  0  0  0  0  0  0  0  0  0  0  0
  -22.0847   -4.1531  -25.3420 C   0  0  0  0  0  0  0  0  0  0  0  0
  -17.7831   -4.0764  -26.6796 C   0  0  0  0  0  0  0  0  0  0  0  0
  -20.4680   -7.0024  -36.8049 C   0  0  0  0  0  0  0  0  0  0  0  0
  -22.7470   -3.9250  -24.0692 C   0  0  0  0  0  0  0  0  0  0  0  0
  -20.3990   -8.4455  -37.2522 C   0  0  0  0  0  0  0  0  0  0  0  0
  -18.5165   -7.9342  -35.8444 C   0  0  0  0  0  0  0  0  0  0  0  0
  -19.4202   -9.0774  -36.2671 C   0  0  1  0  0  0  0  0  0  0  0  0
  -23.4420   -4.2225  -31.2542 C   0  0  0  0  0  0  0  0  0  0  0  0
  -18.9490   -5.1089  -29.2901 C   0  0  0  0  0  0  0  0  0  0  0  0
  -17.9738   -2.6154  -26.7690 C   0  0  0  0  0  0  0  0  0  0  0  0
  -24.9072   -4.0650  -22.8024 C   0  0  0  0  0  0  0  0  0  0  0  0
  -18.9900   -5.4896  -35.4313 C   0  0  0  0  0  0  0  0  0  0  0  0
  -18.4158   -6.2509  -26.5410 N   0  0  0  0  0  0  0  0  0  0  0  0
  -22.8720   -4.0457  -26.4368 N   0  0  0  0  0  0  0  0  0  0  0  0
  -18.8124   -4.9691  -26.6181 N   0  0  0  0  0  0  0  0  0  0  0  0
  -19.3638   -6.7712  -35.9894 N   0  0  0  0  0  0  0  0  0  0  0  0
  -24.1056   -4.2550  -23.9899 N   0  0  0  0  0  0  0  0  0  0  0  0
  -21.3277   -6.2079  -37.1560 O   0  0  0  0  0  0  0  0  0  0  0  0
  -22.1225   -3.4373  -23.1094 O   0  0  0  0  0  0  0  0  0  0  0  0
  -20.1263   -9.5568  -35.1258 O   0  0  0  0  0  0  0  0  0  0  0  0
  -20.0976   -2.7951  -31.8139 H   0  0  0  0  0  0  0  0  0  0  0  0
  -21.0436   -6.9975  -31.5477 H   0  0  0  0  0  0  0  0  0  0  0  0
  -19.1531   -3.1538  -34.0560 H   0  0  0  0  0  0  0  0  0  0  0  0
  -20.0976   -7.3484  -33.7908 H   0  0  0  0  0  0  0  0  0  0  0  0
  -15.6160   -4.4634  -26.6674 H   0  0  0  0  0  0  0  0  0  0  0  0
  -24.1454   -3.9038  -28.7070 H   0  0  0  0  0  0  0  0  0  0  0  0
  -20.1576   -4.5306  -24.4682 H   0  0  0  0  0  0  0  0  0  0  0  0
  -16.4963   -7.0628  -26.5015 H   0  0  0  0  0  0  0  0  0  0  0  0
  -21.3929   -8.8988  -37.2129 H   0  0  0  0  0  0  0  0  0  0  0  0
  -20.0048   -8.4630  -38.2732 H   0  0  0  0  0  0  0  0  0  0  0  0
  -18.1730   -8.0150  -34.8095 H   0  0  0  0  0  0  0  0  0  0  0  0
  -17.6678   -7.8142  -36.5246 H   0  0  0  0  0  0  0  0  0  0  0  0
  -18.8703   -9.9127  -36.7049 H   0  0  0  0  0  0  0  0  0  0  0  0
  -23.4434   -3.1890  -31.6170 H   0  0  0  0  0  0  0  0  0  0  0  0
  -23.1173   -4.8805  -32.0685 H   0  0  0  0  0  0  0  0  0  0  0  0
  -24.4698   -4.5078  -31.0012 H   0  0  0  0  0  0  0  0  0  0  0  0
  -18.8177   -6.1938  -29.2815 H   0  0  0  0  0  0  0  0  0  0  0  0
  -18.6033   -4.7146  -30.2496 H   0  0  0  0  0  0  0  0  0  0  0  0
  -18.3230   -4.6668  -28.5099 H   0  0  0  0  0  0  0  0  0  0  0  0
  -18.0307   -2.2858  -27.8193 H   0  0  0  0  0  0  0  0  0  0  0  0
  -18.8982   -2.2871  -26.2641 H   0  0  0  0  0  0  0  0  0  0  0  0
  -17.1502   -2.0606  -26.2877 H   0  0  0  0  0  0  0  0  0  0  0  0
  -24.9198   -4.9951  -22.2153 H   0  0  0  0  0  0  0  0  0  0  0  0
  -24.4772   -3.2544  -22.1958 H   0  0  0  0  0  0  0  0  0  0  0  0
  -25.9348   -3.8006  -23.0923 H   0  0  0  0  0  0  0  0  0  0  0  0
  -19.3290   -4.7133  -36.1315 H   0  0  0  0  0  0  0  0  0  0  0  0
  -17.8922   -5.4463  -35.4173 H   0  0  0  0  0  0  0  0  0  0  0  0
  -24.5830   -4.5905  -24.8202 H   0  0  0  0  0  0  0  0  0  0  0  0
  -20.7615  -10.2151  -35.4488 H   0  0  0  0  0  0  0  0  0  0  0  0
  1  3  1  0  0  0  0
  1 10  2  0  0  0  0
  2  4  2  0  0  0  0
  2 10  1  0  0  0  0
  3 12  2  0  0  0  0
  4 12  1  0  0  0  0
  5  8  1  0  0  0  0
  5 18  2  0  0  0  0
  6 13  2  0  0  0  0
  6 15  1  0  0  0  0
  7 16  1  0  0  0  0
  7 17  2  0  0  0  0
  8 29  2  0  0  0  0
  9 14  1  0  0  0  0
  9 15  1  0  0  0  0
  9 16  2  0  0  0  0
 10 11  1  0  0  0  0
 11 13  1  0  0  0  0
 11 14  2  0  0  0  0
 12 28  1  0  0  0  0
 13 24  1  0  0  0  0
 14 25  1  0  0  0  0
 15 30  2  0  0  0  0
 16 31  1  0  0  0  0
 17 20  1  0  0  0  0
 17 30  1  0  0  0  0
 18 26  1  0  0  0  0
 18 31  1  0  0  0  0
 19 21  1  0  0  0  0
 19 32  1  0  0  0  0
 19 34  2  0  0  0  0
 20 33  1  0  0  0  0
 20 35  2  0  0  0  0
 21 23  1  0  0  0  0
 22 23  1  0  0  0  0
 22 32  1  0  0  0  0
 23 36  1  0  0  0  0
 27 33  1  0  0  0  0
 28 32  1  0  0  0  0
 29 31  1  0  0  0  0
  1 37  1  0  0  0  0
  2 38  1  0  0  0  0
  3 39  1  0  0  0  0
  4 40  1  0  0  0  0
  5 41  1  0  0  0  0
  6 42  1  0  0  0  0
  7 43  1  0  0  0  0
  8 44  1  0  0  0  0
 21 45  1  0  0  0  0
 21 46  1  0  0  0  0
 22 47  1  0  0  0  0
 22 48  1  0  0  0  0
 23 49  1  0  0  0  0
 24 50  1  0  0  0  0
 24 51  1  0  0  0  0
 24 52  1  0  0  0  0
 25 53  1  0  0  0  0
 25 54  1  0  0  0  0
 25 55  1  0  0  0  0
 26 56  1  0  0  0  0
 26 57  1  0  0  0  0
 26 58  1  0  0  0  0
 27 59  1  0  0  0  0
 27 60  1  0  0  0  0
 27 61  1  0  0  0  0
 28 62  1  0  0  0  0
 28 63  1  0  0  0  0
 33 64  1  0  0  0  0
 36 65  1  0  0  0  0
M  END
> <SMILES>
CNC(=O)c1cc(c2c(c(c(cc2n1)C)-c1ccc(cc1)CN1C[C@@H](O)CC1=O)C)-n1nccc1C

> <FORMATTED_ID>
H3D-008836

> <MOLFORMULA>
C28H29N5O3

> <Exact Mass>
483.23

> <XLogP>
3.51

> <TPSA_NOPS>
100.3

> <s_m_source_file>
ligprep_h3d.sdf

> <i_m_source_file_index>
1313

> <i_lp_mmshare_version>
55123

> <i_f3d_flags>
0

> <s_epik_input>
W0NIM11jMVtjSF1bY0hdbm4xLWMyW2NIXWMoQyg9TylbTkhdW0NIM10pbmMoYzIzKVtjSF1jKFtDSDNdKWMoYzNbQ0gzXSktYzRbY0hdW2NIXWMoW2NIXVtjSF00KVtDSDJdTjVbQ0gyXVtDQEBIXShbT0hdKVtDSDJdQzU9Tw==

> <s_epik_cmdline>
J2VwaWtfcHl0aG9uJywgJy1waHQnLCAnMC41JywgJy1waCcsICc3LjUnLCAnLXRuJywgJzgnLCAnLW1hJywgJzUwMCcsICctaW1hZScsICc8aW5maWxlLm1hZT4nLCAnLW9tYWUnLCAnPG91dGZpbGUubWFlPic=

> <r_lp_tautomer_probability>
1

> <r_epik_Ionization_Penalty>
1.75642e-05

> <r_epik_Ionization_Penalty_Charging>
0

> <r_epik_Ionization_Penalty_Neutral>
1.75642e-05

> <r_epik_State_Penalty>
-0

> <r_epik_Charging_Adjusted_Penalty>
0

> <i_epik_Tot_Q>
0

> <i_epik_Tot_abs_Q>
0

> <s_lp_Force_Field>
S-OPLS

> <r_lp_Energy>
38.9207

> <b_lp_Chiralities_Consistent>
1

> <s_lp_Variant>
ligprep_h3d.sdf:1313-1

> <ROCS_ShapeQuery>
_7L13

> <ROCS_TanimotoCombo>
0.736 

> <ROCS_ShapeTanimoto>
0.630 

> <ROCS_ColorTanimoto>
0.106 

> <ROCS_RefTversky>
0.778 

> <ROCS_RefColorTversky>
0.221 

> <ROCS_RefTverskyCombo>
0.998 

> <ROCS_FitTversky>
0.768 

> <ROCS_FitColorTversky>
0.170 

> <ROCS_FitTverskyCombo>
0.938 

> <ROCS_ColorScore>
-2.019

> <ROCS_Overlap>
1292.161

> <ROCS_Rank>
398                 

$$$$
ligprep_h3d.sdf:509_509
  -OEChem-08212117123D

 60 65  0     1  0  0  0  0  0999 V2000
  -20.9833   -5.1063  -29.5617 C   0  0  0  0  0  0  0  0  0  0  0  0
  -21.7106   -4.3931  -30.5185 C   0  0  0  0  0  0  0  0  0  0  0  0
  -21.1997   -4.8264  -28.1913 C   0  0  0  0  0  0  0  0  0  0  0  0
  -22.1541   -3.8726  -27.7598 C   0  0  0  0  0  0  0  0  0  0  0  0
  -22.6164   -3.4480  -30.0878 C   0  0  0  0  0  0  0  0  0  0  0  0
  -22.8677   -3.1552  -28.7484 C   0  0  0  0  0  0  0  0  0  0  0  0
  -21.8095   -4.3363  -31.9213 C   0  0  0  0  0  0  0  0  0  0  0  0
  -19.2712   -3.6112  -26.1284 C   0  0  0  0  0  0  0  0  0  0  0  0
  -19.5175   -5.7712  -24.8647 C   0  0  0  0  0  0  0  0  0  0  0  0
  -17.3712   -4.8197  -25.7044 C   0  0  0  0  0  0  0  0  0  0  0  0
  -20.3962   -5.6156  -27.1861 C   0  0  0  0  0  0  0  0  0  0  0  0
  -20.0727   -7.0664  -33.6811 C   0  0  0  0  0  0  0  0  0  0  0  0
  -20.5930   -6.4835  -32.3716 C   0  0  0  0  0  0  0  0  0  0  0  0
  -20.6026   -4.7672  -34.0767 C   0  0  0  0  0  0  0  0  0  0  0  0
  -23.5749   -2.9233  -25.9615 C   0  0  0  0  0  0  0  0  0  0  0  0
  -21.5894   -4.3176  -25.3439 C   0  0  1  0  0  0  0  0  0  0  0  0
  -19.5811   -5.8437  -34.4404 C   0  0  2  0  0  0  0  0  0  0  0  0
  -23.8340   -3.1625  -24.4713 C   0  0  1  0  0  0  0  0  0  0  0  0
  -22.5801   -5.2404  -24.5744 C   0  0  2  0  0  0  0  0  0  0  0  0
  -20.2085   -4.8418  -25.8659 C   0  0  2  0  0  0  0  0  0  0  0  0
  -25.2085   -2.6431  -24.0665 C   0  0  0  0  0  0  0  0  0  0  0  0
  -23.0267   -6.5057  -25.2989 C   0  0  0  0  0  0  0  0  0  0  0  0
  -19.0931   -7.4107  -36.1120 C   0  0  0  0  0  0  0  0  0  0  0  0
  -22.7017   -3.4294  -32.3307 N   0  0  0  0  0  0  0  0  0  0  0  0
  -18.0097   -3.9117  -26.4452 N   0  5  0  0  0  0  0  0  0  0  0  0
  -18.1364   -5.6544  -24.8887 N   0  0  0  0  0  0  0  0  0  0  0  0
  -22.3723   -3.6425  -26.4006 N   0  0  3  0  0  0  0  0  0  0  0  0
  -21.0531   -5.1472  -32.7407 N   0  0  0  0  0  0  0  0  0  0  0  0
  -19.7044   -2.4597  -26.1227 O   0  0  0  0  0  0  0  0  0  0  0  0
  -20.0831   -6.6067  -24.1669 O   0  0  0  0  0  0  0  0  0  0  0  0
  -16.1469   -4.9686  -25.7276 O   0  0  0  0  0  0  0  0  0  0  0  0
  -23.2101   -2.8667  -31.1659 O   0  0  0  0  0  0  0  0  0  0  0  0
  -23.8030   -4.5633  -24.2009 O   0  0  0  0  0  0  0  0  0  0  0  0
  -19.5576   -6.0979  -35.8310 O   0  0  0  0  0  0  0  0  0  0  0  0
  -23.8079   -2.2482  -28.4521 F   0  0  0  0  0  0  0  0  0  0  0  0
  -20.2747   -5.8733  -29.8635 H   0  0  0  0  0  0  0  0  0  0  0  0
  -20.9008   -6.5714  -26.9936 H   0  0  0  0  0  0  0  0  0  0  0  0
  -19.4258   -5.8534  -27.6413 H   0  0  0  0  0  0  0  0  0  0  0  0
  -19.2358   -7.7445  -33.4773 H   0  0  0  0  0  0  0  0  0  0  0  0
  -20.8561   -7.6137  -34.2137 H   0  0  0  0  0  0  0  0  0  0  0  0
  -21.4361   -7.0708  -31.9885 H   0  0  0  0  0  0  0  0  0  0  0  0
  -19.8075   -6.4532  -31.6083 H   0  0  0  0  0  0  0  0  0  0  0  0
  -20.1232   -3.7823  -34.0253 H   0  0  0  0  0  0  0  0  0  0  0  0
  -21.4373   -4.7306  -34.7863 H   0  0  0  0  0  0  0  0  0  0  0  0
  -24.4286   -3.2562  -26.5666 H   0  0  0  0  0  0  0  0  0  0  0  0
  -23.4614   -1.8379  -26.0798 H   0  0  0  0  0  0  0  0  0  0  0  0
  -21.3655   -3.4810  -24.6399 H   0  0  0  0  0  0  0  0  0  0  0  0
  -18.5557   -5.5619  -34.1236 H   0  0  0  0  0  0  0  0  0  0  0  0
  -23.0790   -2.6735  -23.8696 H   0  0  0  0  0  0  0  0  0  0  0  0
  -22.1314   -5.5494  -23.6408 H   0  0  0  0  0  0  0  0  0  0  0  0
  -25.9801   -3.1271  -24.6648 H   0  0  0  0  0  0  0  0  0  0  0  0
  -25.2607   -1.5662  -24.2251 H   0  0  0  0  0  0  0  0  0  0  0  0
  -25.3911   -2.8556  -23.0134 H   0  0  0  0  0  0  0  0  0  0  0  0
  -23.4876   -6.2444  -26.2504 H   0  0  0  0  0  0  0  0  0  0  0  0
  -23.7502   -7.0454  -24.6894 H   0  0  0  0  0  0  0  0  0  0  0  0
  -22.1674   -7.1488  -25.4844 H   0  0  0  0  0  0  0  0  0  0  0  0
  -19.0879   -7.5725  -37.1927 H   0  0  0  0  0  0  0  0  0  0  0  0
  -19.7457   -8.1407  -35.6266 H   0  0  0  0  0  0  0  0  0  0  0  0
  -18.0772   -7.5188  -35.7248 H   0  0  0  0  0  0  0  0  0  0  0  0
  -17.6246   -6.2431  -24.2392 H   0  0  0  0  0  0  0  0  0  0  0  0
  1  2  2  0  0  0  0
  1  3  1  0  0  0  0
  2  5  1  0  0  0  0
  2  7  1  0  0  0  0
  3  4  2  0  0  0  0
  3 11  1  0  0  0  0
  4  6  1  0  0  0  0
  4 27  1  0  0  0  0
  5  6  2  0  0  0  0
  5 32  1  0  0  0  0
  6 35  1  0  0  0  0
  7 24  2  0  0  0  0
  7 28  1  0  0  0  0
  8 20  1  0  0  0  0
  8 25  1  0  0  0  0
  8 29  2  0  0  0  0
  9 20  1  0  0  0  0
  9 26  1  0  0  0  0
  9 30  2  0  0  0  0
 10 25  1  0  0  0  0
 10 26  1  0  0  0  0
 10 31  2  0  0  0  0
 11 20  1  0  0  0  0
 12 13  1  0  0  0  0
 12 17  1  0  0  0  0
 13 28  1  0  0  0  0
 14 17  1  0  0  0  0
 14 28  1  0  0  0  0
 15 18  1  0  0  0  0
 15 27  1  0  0  0  0
 16 19  1  0  0  0  0
 16 20  1  0  0  0  0
 16 27  1  0  0  0  0
 17 34  1  0  0  0  0
 18 21  1  0  0  0  0
 18 33  1  0  0  0  0
 19 22  1  0  0  0  0
 19 33  1  0  0  0  0
 23 34  1  0  0  0  0
 24 32  1  0  0  0  0
  1 36  1  0  0  0  0
 11 37  1  0  0  0  0
 11 38  1  0  0  0  0
 12 39  1  0  0  0  0
 12 40  1  0  0  0  0
 13 41  1  0  0  0  0
 13 42  1  0  0  0  0
 14 43  1  0  0  0  0
 14 44  1  0  0  0  0
 15 45  1  0  0  0  0
 15 46  1  0  0  0  0
 16 47  1  0  0  0  0
 17 48  1  0  0  0  0
 18 49  1  0  0  0  0
 19 50  1  0  0  0  0
 21 51  1  0  0  0  0
 21 52  1  0  0  0  0
 21 53  1  0  0  0  0
 22 54  1  0  0  0  0
 22 55  1  0  0  0  0
 22 56  1  0  0  0  0
 23 57  1  0  0  0  0
 23 58  1  0  0  0  0
 23 59  1  0  0  0  0
 26 60  1  0  0  0  0
M  CHG  1  25  -1
M  END
> <SMILES>
CO[C@@H]1CCN(C1)c1noc2c(c3c(cc12)CC1(C2C(C)OC(C)CN23)C(=O)NC(=O)NC1=O)F

> <FORMATTED_ID>
H3D-004137

> <MOLFORMULA>
C23H26FN5O6

> <Exact Mass>
487.19

> <XLogP>
0.55

> <TPSA_NOPS>
126.5

> <s_m_source_file>
ligprep_h3d.sdf

> <i_m_source_file_index>
509

> <i_lp_mmshare_version>
55123

> <i_f3d_flags>
0

> <s_epik_input>
W0NIM11PW0NAQEhdMVtDSDJdW0NIMl1OKFtDSDJdMSljMm5vYyhjM0YpYzJbY0hdYyhbQ0gyXTQpYzNOKFtDSDJdW0NAQEhdKFtDSDNdKU9bQ0BIXTVbQ0gzXSlbQ0BASF01QzQ2Qyg9TylbTkhdQyg9TylbTkhdQzY9Tw==

> <s_epik_cmdline>
J2VwaWtfcHl0aG9uJywgJy1waHQnLCAnMC41JywgJy1waCcsICc3LjUnLCAnLXRuJywgJzgnLCAnLW1hJywgJzUwMCcsICctaW1hZScsICc8aW5maWxlLm1hZT4nLCAnLW9tYWUnLCAnPG91dGZpbGUubWFlPic=

> <r_lp_tautomer_probability>
1

> <r_epik_Ionization_Penalty>
0.455393

> <r_epik_Ionization_Penalty_Charging>
0.455373

> <r_epik_Ionization_Penalty_Neutral>
1.99137e-05

> <r_epik_State_Penalty>
0.458483

> <r_epik_Charging_Adjusted_Penalty>
0.913857

> <i_epik_Tot_Q>
-1

> <i_epik_Tot_abs_Q>
1

> <s_lp_Force_Field>
S-OPLS

> <r_lp_Energy>
58.9622

> <b_lp_Chiralities_Consistent>
1

> <s_lp_Variant>
ligprep_h3d.sdf:509-2

> <ROCS_ShapeQuery>
_7L13

> <ROCS_TanimotoCombo>
0.727 

> <ROCS_ShapeTanimoto>
0.636 

> <ROCS_ColorTanimoto>
0.091 

> <ROCS_RefTversky>
0.778 

> <ROCS_RefColorTversky>
0.216 

> <ROCS_RefTverskyCombo>
0.993 

> <ROCS_FitTversky>
0.777 

> <ROCS_FitColorTversky>
0.136 

> <ROCS_FitTverskyCombo>
0.913 

> <ROCS_ColorScore>
-2.005

> <ROCS_Overlap>
1291.298

> <ROCS_Rank>
399                 

$$$$
ligprep_h3d.sdf:5079_1141
  -OEChem-08212117123D

 65 70  0     0  0  0  0  0  0999 V2000
  -19.3247   -6.1347  -34.7100 C   0  0  0  0  0  0  0  0  0  0  0  0
  -20.3257   -7.0218  -34.3144 C   0  0  0  0  0  0  0  0  0  0  0  0
  -19.2163   -4.8867  -34.0964 C   0  0  0  0  0  0  0  0  0  0  0  0
  -21.2184   -6.6610  -33.3052 C   0  0  0  0  0  0  0  0  0  0  0  0
  -20.1090   -4.5259  -33.0872 C   0  0  0  0  0  0  0  0  0  0  0  0
  -23.5491   -3.9494  -27.7180 C   0  0  0  0  0  0  0  0  0  0  0  0
  -20.8704   -4.5013  -28.4155 C   0  0  0  0  0  0  0  0  0  0  0  0
  -14.7824   -4.7917  -25.6609 C   0  0  0  0  0  0  0  0  0  0  0  0
  -15.8102   -3.8789  -25.6279 C   0  0  0  0  0  0  0  0  0  0  0  0
  -22.6145   -4.2690  -26.7408 C   0  0  0  0  0  0  0  0  0  0  0  0
  -21.1101   -5.4130  -32.6916 C   0  0  0  0  0  0  0  0  0  0  0  0
  -21.2914   -4.5408  -27.0942 C   0  0  0  0  0  0  0  0  0  0  0  0
  -23.1395   -3.9060  -29.0522 C   0  0  0  0  0  0  0  0  0  0  0  0
  -21.8091   -4.1802  -29.3980 C   0  0  0  0  0  0  0  0  0  0  0  0
  -16.5659   -5.9558  -25.8568 C   0  0  0  0  0  0  0  0  0  0  0  0
  -17.5991   -6.9332  -25.9985 C   0  0  0  0  0  0  0  0  0  0  0  0
  -18.8902   -6.5460  -26.0281 C   0  0  0  0  0  0  0  0  0  0  0  0
  -18.2869   -4.2008  -25.7816 C   0  0  0  0  0  0  0  0  0  0  0  0
  -19.2259   -5.1460  -25.9157 C   0  0  0  0  0  0  0  0  0  0  0  0
  -23.8465   -5.4795  -24.9023 C   0  0  0  0  0  0  0  0  0  0  0  0
  -23.2807   -3.0305  -24.6463 C   0  0  0  0  0  0  0  0  0  0  0  0
  -21.3944   -4.7573  -24.7643 C   0  0  0  0  0  0  0  0  0  0  0  0
  -24.1529   -5.5553  -23.4108 C   0  0  0  0  0  0  0  0  0  0  0  0
  -23.5909   -3.1239  -23.1567 C   0  0  0  0  0  0  0  0  0  0  0  0
  -22.8270   -4.3761  -25.2439 C   0  0  0  0  0  0  0  0  0  0  0  0
  -25.0535   -4.2545  -21.4853 C   0  0  0  0  0  0  0  0  0  0  0  0
  -24.1943   -2.2125  -30.3465 C   0  0  0  0  0  0  0  0  0  0  0  0
  -22.0703   -5.0241  -31.6061 C   0  0  0  0  0  0  0  0  0  0  0  0
  -15.2545   -6.0722  -25.8019 N   0  0  0  0  0  0  0  0  0  0  0  0
  -16.9569   -4.6201  -25.7535 N   0  0  0  0  0  0  0  0  0  0  0  0
  -20.5383   -4.8355  -25.9529 N   0  0  0  0  0  0  0  0  0  0  0  0
  -24.6176   -4.2048  -22.9241 N   0  3  0  0  0  0  0  0  0  0  0  0
  -24.0496   -3.5922  -30.0176 O   0  0  0  0  0  0  0  0  0  0  0  0
  -21.4169   -4.1350  -30.7034 O   0  0  0  0  0  0  0  0  0  0  0  0
  -18.6288   -6.4164  -35.4949 H   0  0  0  0  0  0  0  0  0  0  0  0
  -20.4096   -7.9940  -34.7913 H   0  0  0  0  0  0  0  0  0  0  0  0
  -18.4364   -4.1962  -34.4033 H   0  0  0  0  0  0  0  0  0  0  0  0
  -21.9954   -7.3586  -33.0036 H   0  0  0  0  0  0  0  0  0  0  0  0
  -20.0171   -3.5515  -32.6148 H   0  0  0  0  0  0  0  0  0  0  0  0
  -24.5801   -3.7366  -27.4525 H   0  0  0  0  0  0  0  0  0  0  0  0
  -19.8440   -4.7106  -28.6967 H   0  0  0  0  0  0  0  0  0  0  0  0
  -13.7235   -4.5904  -25.5897 H   0  0  0  0  0  0  0  0  0  0  0  0
  -15.8247   -2.8021  -25.5295 H   0  0  0  0  0  0  0  0  0  0  0  0
  -17.3306   -7.9805  -26.0814 H   0  0  0  0  0  0  0  0  0  0  0  0
  -19.6784   -7.2838  -26.1358 H   0  0  0  0  0  0  0  0  0  0  0  0
  -18.4892   -3.1402  -25.6940 H   0  0  0  0  0  0  0  0  0  0  0  0
  -23.4853   -6.4575  -25.2465 H   0  0  0  0  0  0  0  0  0  0  0  0
  -24.7875   -5.3028  -25.4408 H   0  0  0  0  0  0  0  0  0  0  0  0
  -24.1796   -2.6715  -25.1657 H   0  0  0  0  0  0  0  0  0  0  0  0
  -22.5156   -2.2600  -24.8079 H   0  0  0  0  0  0  0  0  0  0  0  0
  -20.9852   -4.0116  -24.0719 H   0  0  0  0  0  0  0  0  0  0  0  0
  -21.3826   -5.7235  -24.2453 H   0  0  0  0  0  0  0  0  0  0  0  0
  -24.9639   -6.2671  -23.2242 H   0  0  0  0  0  0  0  0  0  0  0  0
  -23.2782   -5.8408  -22.8175 H   0  0  0  0  0  0  0  0  0  0  0  0
  -22.7067   -3.3696  -22.5594 H   0  0  0  0  0  0  0  0  0  0  0  0
  -24.0197   -2.1826  -22.7971 H   0  0  0  0  0  0  0  0  0  0  0  0
  -24.1833   -4.5188  -20.8817 H   0  0  0  0  0  0  0  0  0  0  0  0
  -25.4323   -3.2665  -21.2167 H   0  0  0  0  0  0  0  0  0  0  0  0
  -25.8354   -5.0114  -21.3990 H   0  0  0  0  0  0  0  0  0  0  0  0
  -24.9496   -2.1007  -31.1282 H   0  0  0  0  0  0  0  0  0  0  0  0
  -23.2358   -1.8169  -30.6920 H   0  0  0  0  0  0  0  0  0  0  0  0
  -24.5118   -1.6660  -29.4553 H   0  0  0  0  0  0  0  0  0  0  0  0
  -22.9519   -4.5256  -32.0230 H   0  0  0  0  0  0  0  0  0  0  0  0
  -22.4120   -5.9075  -31.0559 H   0  0  0  0  0  0  0  0  0  0  0  0
  -25.4530   -3.9545  -23.4710 H   0  0  0  0  0  0  0  0  0  0  0  0
  1  2  2  0  0  0  0
  1  3  1  0  0  0  0
  2  4  1  0  0  0  0
  3  5  2  0  0  0  0
  4 11  2  0  0  0  0
  5 11  1  0  0  0  0
  6 10  1  0  0  0  0
  6 13  2  0  0  0  0
  7 12  1  0  0  0  0
  7 14  2  0  0  0  0
  8  9  2  0  0  0  0
  8 29  1  0  0  0  0
  9 30  1  0  0  0  0
 10 12  2  0  0  0  0
 10 25  1  0  0  0  0
 11 28  1  0  0  0  0
 12 31  1  0  0  0  0
 13 14  1  0  0  0  0
 13 33  1  0  0  0  0
 14 34  1  0  0  0  0
 15 16  1  0  0  0  0
 15 29  2  0  0  0  0
 15 30  1  0  0  0  0
 16 17  2  0  0  0  0
 17 19  1  0  0  0  0
 18 19  2  0  0  0  0
 18 30  1  0  0  0  0
 19 31  1  0  0  0  0
 20 23  1  0  0  0  0
 20 25  1  0  0  0  0
 21 24  1  0  0  0  0
 21 25  1  0  0  0  0
 22 25  1  0  0  0  0
 22 31  1  0  0  0  0
 23 32  1  0  0  0  0
 24 32  1  0  0  0  0
 26 32  1  0  0  0  0
 27 33  1  0  0  0  0
 28 34  1  0  0  0  0
  1 35  1  0  0  0  0
  2 36  1  0  0  0  0
  3 37  1  0  0  0  0
  4 38  1  0  0  0  0
  5 39  1  0  0  0  0
  6 40  1  0  0  0  0
  7 41  1  0  0  0  0
  8 42  1  0  0  0  0
  9 43  1  0  0  0  0
 16 44  1  0  0  0  0
 17 45  1  0  0  0  0
 18 46  1  0  0  0  0
 20 47  1  0  0  0  0
 20 48  1  0  0  0  0
 21 49  1  0  0  0  0
 21 50  1  0  0  0  0
 22 51  1  0  0  0  0
 22 52  1  0  0  0  0
 23 53  1  0  0  0  0
 23 54  1  0  0  0  0
 24 55  1  0  0  0  0
 24 56  1  0  0  0  0
 26 57  1  0  0  0  0
 26 58  1  0  0  0  0
 26 59  1  0  0  0  0
 27 60  1  0  0  0  0
 27 61  1  0  0  0  0
 27 62  1  0  0  0  0
 28 63  1  0  0  0  0
 28 64  1  0  0  0  0
 32 65  1  0  0  0  0
M  CHG  1  32   1
M  END
> <SMILES>
COc1cc2c(cc1OCc1ccccc1)N(CC12CCN(C)CC1)c1ccc2nccn2c1

> <FORMATTED_ID>
H3D-012470

> <MOLFORMULA>
C28H30N4O2

> <Exact Mass>
454.24

> <XLogP>
6.07

> <TPSA_NOPS>
42.2

> <s_m_source_file>
ligprep_h3d.sdf

> <i_m_source_file_index>
5079

> <i_lp_mmshare_version>
55123

> <i_f3d_flags>
0

> <s_epik_input>
W2NIXTFbY0hdW2NIXVtjSF1bY0hdYzFbQ0gyXU9jKGMoW2NIXTIpT1tDSDNdKVtjSF1jKE4oW0NIMl0zKWMoW2NIXVtjSF00KVtjSF1uKGM0NSlbY0hdW2NIXW41KWMyQzM2W0NIMl1bQ0gyXU4oW0NIM10pW0NIMl1bQ0gyXTY=

> <s_epik_cmdline>
J2VwaWtfcHl0aG9uJywgJy1waHQnLCAnMC41JywgJy1waCcsICc3LjUnLCAnLXRuJywgJzgnLCAnLW1hJywgJzUwMCcsICctaW1hZScsICc8aW5maWxlLm1hZT4nLCAnLW9tYWUnLCAnPG91dGZpbGUubWFlPic=

> <r_lp_tautomer_probability>
1

> <r_epik_Ionization_Penalty>
0.182835

> <r_epik_Ionization_Penalty_Charging>
0.182835

> <r_epik_Ionization_Penalty_Neutral>
3.07946e-10

> <r_epik_State_Penalty>
0.164128

> <r_epik_Charging_Adjusted_Penalty>
0.346964

> <i_epik_Tot_Q>
1

> <i_epik_Tot_abs_Q>
1

> <s_lp_Force_Field>
S-OPLS

> <r_lp_Energy>
72.417

> <b_lp_Chiralities_Consistent>
1

> <s_lp_Variant>
ligprep_h3d.sdf:5079-1

> <ROCS_ShapeQuery>
_7L13

> <ROCS_TanimotoCombo>
0.758 

> <ROCS_ShapeTanimoto>
0.657 

> <ROCS_ColorTanimoto>
0.101 

> <ROCS_RefTversky>
0.777 

> <ROCS_RefColorTversky>
0.202 

> <ROCS_RefTverskyCombo>
0.979 

> <ROCS_FitTversky>
0.809 

> <ROCS_FitColorTversky>
0.168 

> <ROCS_FitTverskyCombo>
0.977 

> <ROCS_ColorScore>
-1.836

> <ROCS_Overlap>
1288.285

> <ROCS_Rank>
400                 

$$$$
ligprep_h3d.sdf:4839_1585
  -OEChem-08212117123D

 66 70  0     1  0  0  0  0  0999 V2000
  -17.0587   -5.7313  -26.1277 C   0  0  0  0  0  0  0  0  0  0  0  0
  -17.5209   -3.3994  -25.6967 C   0  0  0  0  0  0  0  0  0  0  0  0
  -23.2281   -4.3892  -24.1430 C   0  0  0  0  0  0  0  0  0  0  0  0
  -25.3997   -4.8676  -25.0877 C   0  0  0  0  0  0  0  0  0  0  0  0
  -16.0548   -5.7113  -25.1595 C   0  0  0  0  0  0  0  0  0  0  0  0
  -16.5171   -3.3794  -24.7284 C   0  0  0  0  0  0  0  0  0  0  0  0
  -23.8035   -4.2762  -22.8774 C   0  0  0  0  0  0  0  0  0  0  0  0
  -25.9751   -4.7546  -23.8222 C   0  0  0  0  0  0  0  0  0  0  0  0
  -17.7917   -4.5753  -26.3963 C   0  0  0  0  0  0  0  0  0  0  0  0
  -24.0262   -4.6849  -25.2482 C   0  0  0  0  0  0  0  0  0  0  0  0
  -15.7840   -4.5354  -24.4598 C   0  0  0  0  0  0  0  0  0  0  0  0
  -25.1771   -4.4589  -22.7170 C   0  0  0  0  0  0  0  0  0  0  0  0
  -22.2971   -3.3570  -31.5732 C   0  0  0  0  0  0  0  0  0  0  0  0
  -19.4812   -6.3799  -34.0740 C   0  0  0  0  0  0  0  0  0  0  0  0
  -21.9139   -6.9477  -33.9125 C   0  0  0  0  0  0  0  0  0  0  0  0
  -19.8466   -4.9150  -33.8371 C   0  0  0  0  0  0  0  0  0  0  0  0
  -22.2049   -5.4654  -33.6811 C   0  0  0  0  0  0  0  0  0  0  0  0
  -22.5575   -3.9207  -29.1726 C   0  0  0  0  0  0  0  0  0  0  0  0
  -19.2776   -5.6367  -28.2161 C   0  0  0  0  0  0  0  0  0  0  0  0
  -19.4791   -3.5452  -28.0504 C   0  0  0  0  0  0  0  0  0  0  0  0
  -20.4532   -4.4847  -30.2455 C   0  0  0  0  0  0  0  0  0  0  0  0
  -21.7934   -4.8703  -28.2598 C   0  0  1  0  0  0  0  0  0  0  0  0
  -20.6338   -7.1420  -34.7202 C   0  0  0  0  0  0  0  0  0  0  0  0
  -20.3467   -4.6439  -28.7263 C   0  0  0  0  0  0  0  0  0  0  0  0
  -21.3796   -3.3937  -32.7692 C   0  0  0  0  0  0  0  0  0  0  0  0
  -22.0619   -4.6305  -26.7858 C   0  0  0  0  0  0  0  0  0  0  0  0
  -18.8004   -4.5954  -27.3694 N   0  0  0  0  0  0  0  0  0  0  0  0
  -21.7820   -3.8966  -30.4057 N   0  0  0  0  0  0  0  0  0  0  0  0
  -21.0686   -4.7993  -33.0283 N   0  0  0  0  0  0  0  0  0  0  0  0
  -23.4499   -4.7980  -26.5155 N   0  0  0  0  0  0  0  0  0  0  0  0
  -23.4230   -2.8649  -31.6673 O   0  0  0  0  0  0  0  0  0  0  0  0
  -20.3005   -8.5230  -34.7788 O   0  0  0  0  0  0  0  0  0  0  0  0
  -14.8200   -4.5162  -23.5299 F   0  0  0  0  0  0  0  0  0  0  0  0
  -25.7297   -4.3504  -21.5017 F   0  0  0  0  0  0  0  0  0  0  0  0
  -17.2615   -6.6531  -26.6668 H   0  0  0  0  0  0  0  0  0  0  0  0
  -18.0857   -2.4928  -25.8981 H   0  0  0  0  0  0  0  0  0  0  0  0
  -22.1567   -4.2452  -24.2566 H   0  0  0  0  0  0  0  0  0  0  0  0
  -26.0310   -5.0981  -25.9421 H   0  0  0  0  0  0  0  0  0  0  0  0
  -15.4841   -6.6111  -24.9499 H   0  0  0  0  0  0  0  0  0  0  0  0
  -16.3056   -2.4641  -24.1835 H   0  0  0  0  0  0  0  0  0  0  0  0
  -23.1825   -4.0462  -22.0167 H   0  0  0  0  0  0  0  0  0  0  0  0
  -27.0445   -4.8965  -23.6967 H   0  0  0  0  0  0  0  0  0  0  0  0
  -18.5895   -6.4483  -34.7091 H   0  0  0  0  0  0  0  0  0  0  0  0
  -19.2058   -6.8575  -33.1241 H   0  0  0  0  0  0  0  0  0  0  0  0
  -21.8291   -7.4700  -32.9501 H   0  0  0  0  0  0  0  0  0  0  0  0
  -22.7562   -7.4194  -34.4328 H   0  0  0  0  0  0  0  0  0  0  0  0
  -19.0138   -4.4381  -33.3135 H   0  0  0  0  0  0  0  0  0  0  0  0
  -19.9702   -4.4081  -34.7990 H   0  0  0  0  0  0  0  0  0  0  0  0
  -22.4384   -4.9845  -34.6361 H   0  0  0  0  0  0  0  0  0  0  0  0
  -23.0896   -5.3893  -33.0431 H   0  0  0  0  0  0  0  0  0  0  0  0
  -23.5413   -4.3273  -29.4255 H   0  0  0  0  0  0  0  0  0  0  0  0
  -22.6889   -2.9146  -28.7693 H   0  0  0  0  0  0  0  0  0  0  0  0
  -19.6528   -6.4949  -27.6428 H   0  0  0  0  0  0  0  0  0  0  0  0
  -18.5275   -5.9803  -28.9375 H   0  0  0  0  0  0  0  0  0  0  0  0
  -18.8290   -2.9685  -28.7106 H   0  0  0  0  0  0  0  0  0  0  0  0
  -20.0124   -2.8823  -27.3634 H   0  0  0  0  0  0  0  0  0  0  0  0
  -19.7210   -3.7685  -30.6333 H   0  0  0  0  0  0  0  0  0  0  0  0
  -20.3718   -5.4233  -30.8010 H   0  0  0  0  0  0  0  0  0  0  0  0
  -22.1182   -5.9327  -28.4961 H   0  0  0  0  0  0  0  0  0  0  0  0
  -20.7798   -6.7858  -35.7469 H   0  0  0  0  0  0  0  0  0  0  0  0
  -20.4836   -2.8304  -32.5262 H   0  0  0  0  0  0  0  0  0  0  0  0
  -21.8999   -2.9438  -33.6096 H   0  0  0  0  0  0  0  0  0  0  0  0
  -21.4719   -5.3561  -26.2286 H   0  0  0  0  0  0  0  0  0  0  0  0
  -21.7472   -3.6127  -26.5624 H   0  0  0  0  0  0  0  0  0  0  0  0
  -24.0843   -5.0150  -27.2887 H   0  0  0  0  0  0  0  0  0  0  0  0
  -21.0530   -8.9748  -35.1936 H   0  0  0  0  0  0  0  0  0  0  0  0
  1  5  1  0  0  0  0
  1  9  2  0  0  0  0
  2  6  2  0  0  0  0
  2  9  1  0  0  0  0
  3  7  1  0  0  0  0
  3 10  2  0  0  0  0
  4  8  2  0  0  0  0
  4 10  1  0  0  0  0
  5 11  2  0  0  0  0
  6 11  1  0  0  0  0
  7 12  2  0  0  0  0
  8 12  1  0  0  0  0
  9 27  1  0  0  0  0
 10 30  1  0  0  0  0
 11 33  1  0  0  0  0
 12 34  1  0  0  0  0
 13 25  1  0  0  0  0
 13 28  1  0  0  0  0
 13 31  2  0  0  0  0
 14 16  1  0  0  0  0
 14 23  1  0  0  0  0
 15 17  1  0  0  0  0
 15 23  1  0  0  0  0
 16 29  1  0  0  0  0
 17 29  1  0  0  0  0
 18 22  1  0  0  0  0
 18 28  1  0  0  0  0
 19 24  1  0  0  0  0
 19 27  1  0  0  0  0
 20 24  1  0  0  0  0
 20 27  1  0  0  0  0
 21 24  1  0  0  0  0
 21 28  1  0  0  0  0
 22 24  1  0  0  0  0
 22 26  1  0  0  0  0
 23 32  1  0  0  0  0
 25 29  1  0  0  0  0
 26 30  1  0  0  0  0
  1 35  1  0  0  0  0
  2 36  1  0  0  0  0
  3 37  1  0  0  0  0
  4 38  1  0  0  0  0
  5 39  1  0  0  0  0
  6 40  1  0  0  0  0
  7 41  1  0  0  0  0
  8 42  1  0  0  0  0
 14 43  1  0  0  0  0
 14 44  1  0  0  0  0
 15 45  1  0  0  0  0
 15 46  1  0  0  0  0
 16 47  1  0  0  0  0
 16 48  1  0  0  0  0
 17 49  1  0  0  0  0
 17 50  1  0  0  0  0
 18 51  1  0  0  0  0
 18 52  1  0  0  0  0
 19 53  1  0  0  0  0
 19 54  1  0  0  0  0
 20 55  1  0  0  0  0
 20 56  1  0  0  0  0
 21 57  1  0  0  0  0
 21 58  1  0  0  0  0
 22 59  1  0  0  0  0
 23 60  1  0  0  0  0
 25 61  1  0  0  0  0
 25 62  1  0  0  0  0
 26 63  1  0  0  0  0
 26 64  1  0  0  0  0
 30 65  1  0  0  0  0
 32 66  1  0  0  0  0
M  END
> <SMILES>
OC1CCN(CC1)CC(=O)N1CC(CNc2ccc(cc2)F)C2(C1)CN(C2)c1ccc(cc1)F

> <FORMATTED_ID>
H3D-007499

> <MOLFORMULA>
C26H32F2N4O2

> <Exact Mass>
470.25

> <XLogP>
2.22

> <TPSA_NOPS>
59.1

> <s_m_source_file>
ligprep_h3d.sdf

> <i_m_source_file_index>
4839

> <i_lp_mmshare_version>
55123

> <i_f3d_flags>
0

> <s_epik_input>
W09IXVtDSF0xW0NIMl1bQ0gyXU4oW0NIMl1bQ0gyXTEpW0NIMl1DKD1PKU4oW0NIMl0yKVtDSDJdW0NASF0oW0NIMl1bTkhdYzNbY0hdW2NIXWMoRilbY0hdW2NIXTMpQzI0W0NIMl1OKFtDSDJdNCljNVtjSF1bY0hdYyhGKVtjSF1bY0hdNQ==

> <s_epik_cmdline>
J2VwaWtfcHl0aG9uJywgJy1waHQnLCAnMC41JywgJy1waCcsICc3LjUnLCAnLXRuJywgJzgnLCAnLW1hJywgJzUwMCcsICctaW1hZScsICc8aW5maWxlLm1hZT4nLCAnLW9tYWUnLCAnPG91dGZpbGUubWFlPic=

> <r_epik_Ionization_Penalty>
0.633807

> <r_epik_Ionization_Penalty_Charging>
0

> <r_epik_Ionization_Penalty_Neutral>
0.633807

> <r_epik_State_Penalty>
0.647553

> <r_epik_Charging_Adjusted_Penalty>
0.647553

> <i_epik_Tot_Q>
0

> <i_epik_Tot_abs_Q>
0

> <s_lp_Force_Field>
S-OPLS

> <r_lp_Energy>
35.7785

> <b_lp_Chiralities_Consistent>
1

> <s_lp_Variant>
ligprep_h3d.sdf:4839-2

> <ROCS_ShapeQuery>
_7L13

> <ROCS_TanimotoCombo>
0.729 

> <ROCS_ShapeTanimoto>
0.672 

> <ROCS_ColorTanimoto>
0.057 

> <ROCS_RefTversky>
0.777 

> <ROCS_RefColorTversky>
0.113 

> <ROCS_RefTverskyCombo>
0.890 

> <ROCS_FitTversky>
0.832 

> <ROCS_FitColorTversky>
0.103 

> <ROCS_FitTverskyCombo>
0.935 

> <ROCS_ColorScore>
-1.022

> <ROCS_Overlap>
1286.125

> <ROCS_Rank>
401                 

$$$$
ligprep_h3d.sdf:5155_1184
  -OEChem-08212117123D

 64 69  0     0  0  0  0  0  0999 V2000
  -19.3060   -6.1409  -34.7000 C   0  0  0  0  0  0  0  0  0  0  0  0
  -20.3046   -7.0305  -34.3037 C   0  0  0  0  0  0  0  0  0  0  0  0
  -19.2023   -4.8914  -34.0888 C   0  0  0  0  0  0  0  0  0  0  0  0
  -21.1996   -6.6705  -33.2962 C   0  0  0  0  0  0  0  0  0  0  0  0
  -20.0973   -4.5314  -33.0813 C   0  0  0  0  0  0  0  0  0  0  0  0
  -23.5450   -3.9550  -27.7170 C   0  0  0  0  0  0  0  0  0  0  0  0
  -20.8638   -4.4997  -28.4105 C   0  0  0  0  0  0  0  0  0  0  0  0
  -14.8023   -4.8418  -25.6573 C   0  0  0  0  0  0  0  0  0  0  0  0
  -22.6104   -4.2696  -26.7381 C   0  0  0  0  0  0  0  0  0  0  0  0
  -21.0959   -5.4209  -32.6850 C   0  0  0  0  0  0  0  0  0  0  0  0
  -21.2860   -4.5378  -27.0895 C   0  0  0  0  0  0  0  0  0  0  0  0
  -23.1341   -3.9130  -29.0508 C   0  0  0  0  0  0  0  0  0  0  0  0
  -21.8024   -4.1836  -29.3947 C   0  0  0  0  0  0  0  0  0  0  0  0
  -16.8751   -4.5833  -25.7390 C   0  0  0  0  0  0  0  0  0  0  0  0
  -18.2466   -4.2035  -25.7740 C   0  0  0  0  0  0  0  0  0  0  0  0
  -18.8516   -6.5483  -26.0167 C   0  0  0  0  0  0  0  0  0  0  0  0
  -17.5605   -6.9136  -25.9847 C   0  0  0  0  0  0  0  0  0  0  0  0
  -19.2199   -5.1340  -25.9077 C   0  0  0  0  0  0  0  0  0  0  0  0
  -23.8405   -5.4803  -24.8985 C   0  0  0  0  0  0  0  0  0  0  0  0
  -23.2828   -3.0290  -24.6469 C   0  0  0  0  0  0  0  0  0  0  0  0
  -21.3908   -4.7500  -24.7594 C   0  0  0  0  0  0  0  0  0  0  0  0
  -24.1482   -5.5541  -23.4072 C   0  0  0  0  0  0  0  0  0  0  0  0
  -23.5943   -3.1204  -23.1575 C   0  0  0  0  0  0  0  0  0  0  0  0
  -22.8242   -4.3744  -25.2412 C   0  0  0  0  0  0  0  0  0  0  0  0
  -25.0551   -4.2522  -21.4853 C   0  0  0  0  0  0  0  0  0  0  0  0
  -24.1929   -2.2256  -30.3497 C   0  0  0  0  0  0  0  0  0  0  0  0
  -22.0585   -5.0329  -31.6013 C   0  0  0  0  0  0  0  0  0  0  0  0
  -15.7683   -3.8844  -25.6189 N   0  0  0  0  0  0  0  0  0  0  0  0
  -15.2263   -6.0973  -25.7929 N   0  0  0  0  0  0  0  0  0  0  0  0
  -16.5725   -5.9420  -25.8469 N   0  0  0  0  0  0  0  0  0  0  0  0
  -20.5332   -4.8278  -25.9468 N   0  0  0  0  0  0  0  0  0  0  0  0
  -24.6178   -4.2041  -22.9237 N   0  3  0  0  0  0  0  0  0  0  0  0
  -24.0441   -3.6041  -30.0178 O   0  0  0  0  0  0  0  0  0  0  0  0
  -21.4089   -4.1399  -30.6998 O   0  0  0  0  0  0  0  0  0  0  0  0
  -18.6084   -6.4219  -35.4836 H   0  0  0  0  0  0  0  0  0  0  0  0
  -20.3848   -8.0039  -34.7787 H   0  0  0  0  0  0  0  0  0  0  0  0
  -18.4243   -4.1990  -34.3964 H   0  0  0  0  0  0  0  0  0  0  0  0
  -21.9746   -7.3699  -32.9940 H   0  0  0  0  0  0  0  0  0  0  0  0
  -20.0090   -3.5556  -32.6108 H   0  0  0  0  0  0  0  0  0  0  0  0
  -24.5769   -3.7450  -27.4530 H   0  0  0  0  0  0  0  0  0  0  0  0
  -19.8364   -4.7062  -28.6901 H   0  0  0  0  0  0  0  0  0  0  0  0
  -13.7485   -4.6180  -25.5840 H   0  0  0  0  0  0  0  0  0  0  0  0
  -18.4908   -3.1489  -25.6911 H   0  0  0  0  0  0  0  0  0  0  0  0
  -19.6334   -7.2927  -26.1235 H   0  0  0  0  0  0  0  0  0  0  0  0
  -17.2397   -7.9452  -26.0616 H   0  0  0  0  0  0  0  0  0  0  0  0
  -23.4757   -6.4578  -25.2403 H   0  0  0  0  0  0  0  0  0  0  0  0
  -24.7814   -5.3078  -25.4383 H   0  0  0  0  0  0  0  0  0  0  0  0
  -24.1823   -2.6739  -25.1680 H   0  0  0  0  0  0  0  0  0  0  0  0
  -22.5200   -2.2563  -24.8092 H   0  0  0  0  0  0  0  0  0  0  0  0
  -20.9848   -4.0015  -24.0680 H   0  0  0  0  0  0  0  0  0  0  0  0
  -21.3765   -5.7150  -24.2383 H   0  0  0  0  0  0  0  0  0  0  0  0
  -24.9571   -6.2682  -23.2200 H   0  0  0  0  0  0  0  0  0  0  0  0
  -23.2732   -5.8355  -22.8123 H   0  0  0  0  0  0  0  0  0  0  0  0
  -22.7100   -3.3620  -22.5587 H   0  0  0  0  0  0  0  0  0  0  0  0
  -24.0265   -2.1798  -22.8002 H   0  0  0  0  0  0  0  0  0  0  0  0
  -24.1847   -4.5125  -20.8803 H   0  0  0  0  0  0  0  0  0  0  0  0
  -25.4373   -3.2650  -21.2191 H   0  0  0  0  0  0  0  0  0  0  0  0
  -25.8346   -5.0116  -21.3983 H   0  0  0  0  0  0  0  0  0  0  0  0
  -24.9478   -2.1179  -31.1324 H   0  0  0  0  0  0  0  0  0  0  0  0
  -23.2354   -1.8276  -30.6950 H   0  0  0  0  0  0  0  0  0  0  0  0
  -24.5132   -1.6783  -29.4600 H   0  0  0  0  0  0  0  0  0  0  0  0
  -22.9413   -4.5380  -32.0202 H   0  0  0  0  0  0  0  0  0  0  0  0
  -22.3980   -5.9162  -31.0497 H   0  0  0  0  0  0  0  0  0  0  0  0
  -25.4534   -3.9576  -23.4720 H   0  0  0  0  0  0  0  0  0  0  0  0
  1  2  2  0  0  0  0
  1  3  1  0  0  0  0
  2  4  1  0  0  0  0
  3  5  2  0  0  0  0
  4 10  2  0  0  0  0
  5 10  1  0  0  0  0
  6  9  1  0  0  0  0
  6 12  2  0  0  0  0
  7 11  1  0  0  0  0
  7 13  2  0  0  0  0
  8 28  1  0  0  0  0
  8 29  2  0  0  0  0
  9 11  2  0  0  0  0
  9 24  1  0  0  0  0
 10 27  1  0  0  0  0
 11 31  1  0  0  0  0
 12 13  1  0  0  0  0
 12 33  1  0  0  0  0
 13 34  1  0  0  0  0
 14 15  1  0  0  0  0
 14 28  2  0  0  0  0
 14 30  1  0  0  0  0
 15 18  2  0  0  0  0
 16 17  2  0  0  0  0
 16 18  1  0  0  0  0
 17 30  1  0  0  0  0
 18 31  1  0  0  0  0
 19 22  1  0  0  0  0
 19 24  1  0  0  0  0
 20 23  1  0  0  0  0
 20 24  1  0  0  0  0
 21 24  1  0  0  0  0
 21 31  1  0  0  0  0
 22 32  1  0  0  0  0
 23 32  1  0  0  0  0
 25 32  1  0  0  0  0
 26 33  1  0  0  0  0
 27 34  1  0  0  0  0
 29 30  1  0  0  0  0
  1 35  1  0  0  0  0
  2 36  1  0  0  0  0
  3 37  1  0  0  0  0
  4 38  1  0  0  0  0
  5 39  1  0  0  0  0
  6 40  1  0  0  0  0
  7 41  1  0  0  0  0
  8 42  1  0  0  0  0
 15 43  1  0  0  0  0
 16 44  1  0  0  0  0
 17 45  1  0  0  0  0
 19 46  1  0  0  0  0
 19 47  1  0  0  0  0
 20 48  1  0  0  0  0
 20 49  1  0  0  0  0
 21 50  1  0  0  0  0
 21 51  1  0  0  0  0
 22 52  1  0  0  0  0
 22 53  1  0  0  0  0
 23 54  1  0  0  0  0
 23 55  1  0  0  0  0
 25 56  1  0  0  0  0
 25 57  1  0  0  0  0
 25 58  1  0  0  0  0
 26 59  1  0  0  0  0
 26 60  1  0  0  0  0
 26 61  1  0  0  0  0
 27 62  1  0  0  0  0
 27 63  1  0  0  0  0
 32 64  1  0  0  0  0
M  CHG  1  32   1
M  END
> <SMILES>
COc1cc2c(cc1OCc1ccccc1)N(CC12CCN(C)CC1)c1ccn2ncnc2c1

> <FORMATTED_ID>
H3D-013945

> <MOLFORMULA>
C27H29N5O2

> <Exact Mass>
455.23

> <XLogP>
5.75

> <TPSA_NOPS>
55.1

> <s_m_source_file>
ligprep_h3d.sdf

> <i_m_source_file_index>
5155

> <i_lp_mmshare_version>
55123

> <i_f3d_flags>
0

> <s_epik_input>
W2NIXTFbY0hdW2NIXVtjSF1bY0hdYzFbQ0gyXU9jKGMoW2NIXTIpT1tDSDNdKVtjSF1jKE4oW0NIMl0zKWMoW2NIXVtjSF00KVtjSF1jKG40NSluW2NIXW41KWMyQzM2W0NIMl1bQ0gyXU4oW0NIM10pW0NIMl1bQ0gyXTY=

> <s_epik_cmdline>
J2VwaWtfcHl0aG9uJywgJy1waHQnLCAnMC41JywgJy1waCcsICc3LjUnLCAnLXRuJywgJzgnLCAnLW1hJywgJzUwMCcsICctaW1hZScsICc8aW5maWxlLm1hZT4nLCAnLW9tYWUnLCAnPG91dGZpbGUubWFlPic=

> <r_lp_tautomer_probability>
1

> <r_epik_Ionization_Penalty>
0.0188418

> <r_epik_Ionization_Penalty_Charging>
0.00813204

> <r_epik_Ionization_Penalty_Neutral>
0.0107097

> <r_epik_State_Penalty>
0.00820443

> <r_epik_Charging_Adjusted_Penalty>
0.0163365

> <i_epik_Tot_Q>
1

> <i_epik_Tot_abs_Q>
1

> <s_lp_Force_Field>
S-OPLS

> <r_lp_Energy>
69.8553

> <b_lp_Chiralities_Consistent>
1

> <s_lp_Variant>
ligprep_h3d.sdf:5155-1

> <ROCS_ShapeQuery>
_7L13

> <ROCS_TanimotoCombo>
0.752 

> <ROCS_ShapeTanimoto>
0.656 

> <ROCS_ColorTanimoto>
0.096 

> <ROCS_RefTversky>
0.777 

> <ROCS_RefColorTversky>
0.201 

> <ROCS_RefTverskyCombo>
0.978 

> <ROCS_FitTversky>
0.808 

> <ROCS_FitColorTversky>
0.154 

> <ROCS_FitTverskyCombo>
0.962 

> <ROCS_ColorScore>
-1.836

> <ROCS_Overlap>
1287.927

> <ROCS_Rank>
402                 

$$$$
ligprep_h3d.sdf:5330_1653
  -OEChem-08212117123D

 66 71  0     0  0  0  0  0  0999 V2000
  -18.3251   -5.1988  -35.1976 C   0  0  0  0  0  0  0  0  0  0  0  0
  -19.2301   -6.2266  -34.9325 C   0  0  0  0  0  0  0  0  0  0  0  0
  -18.4281   -3.9859  -34.5164 C   0  0  0  0  0  0  0  0  0  0  0  0
  -20.2382   -6.0414  -33.9863 C   0  0  0  0  0  0  0  0  0  0  0  0
  -19.4361   -3.8008  -33.5702 C   0  0  0  0  0  0  0  0  0  0  0  0
  -23.3230   -3.9844  -28.4912 C   0  0  0  0  0  0  0  0  0  0  0  0
  -20.5548   -4.1507  -28.9839 C   0  0  0  0  0  0  0  0  0  0  0  0
  -14.8357   -6.4324  -26.8156 C   0  0  0  0  0  0  0  0  0  0  0  0
  -14.9418   -5.3368  -25.9917 C   0  0  0  0  0  0  0  0  0  0  0  0
  -22.4268   -4.2361  -27.4594 C   0  0  0  0  0  0  0  0  0  0  0  0
  -20.3411   -4.8285  -33.3051 C   0  0  0  0  0  0  0  0  0  0  0  0
  -21.0488   -4.3181  -27.6953 C   0  0  0  0  0  0  0  0  0  0  0  0
  -22.8248   -3.8073  -29.7813 C   0  0  0  0  0  0  0  0  0  0  0  0
  -21.4491   -3.8917  -30.0263 C   0  0  0  0  0  0  0  0  0  0  0  0
  -16.9086   -5.9119  -26.8408 C   0  0  0  0  0  0  0  0  0  0  0  0
  -18.3157   -5.7602  -27.0131 C   0  0  0  0  0  0  0  0  0  0  0  0
  -18.2578   -3.8365  -25.5181 C   0  0  0  0  0  0  0  0  0  0  0  0
  -16.9328   -3.9727  -25.3500 C   0  0  0  0  0  0  0  0  0  0  0  0
  -18.9887   -4.7670  -26.3856 C   0  0  0  0  0  0  0  0  0  0  0  0
  -24.5573   -5.0931  -23.8210 C   0  0  0  0  0  0  0  0  0  0  0  0
  -23.7674   -6.2328  -24.4089 C   0  0  0  0  0  0  0  0  0  0  0  0
  -23.9612   -3.7119  -23.9176 C   0  0  0  0  0  0  0  0  0  0  0  0
  -23.3805   -5.9033  -25.8494 C   0  0  0  0  0  0  0  0  0  0  0  0
  -23.6218   -3.4202  -25.3765 C   0  0  0  0  0  0  0  0  0  0  0  0
  -21.2797   -4.4790  -25.4054 C   0  0  0  0  0  0  0  0  0  0  0  0
  -22.7232   -4.5094  -26.0030 C   0  0  0  0  0  0  0  0  0  0  0  0
  -23.9858   -2.1739  -31.0617 C   0  0  0  0  0  0  0  0  0  0  0  0
  -27.4410   -4.3465  -22.1457 C   0  0  0  0  0  0  0  0  0  0  0  0
  -21.4254   -4.6286  -32.2873 C   0  0  0  0  0  0  0  0  0  0  0  0
  -16.0546   -6.7837  -27.3377 N   0  0  0  0  0  0  0  0  0  0  0  0
  -25.6875   -5.3168  -23.2356 N   0  0  0  0  0  0  0  0  0  0  0  0
  -16.2712   -5.0017  -26.0072 N   0  0  0  0  0  0  0  0  0  0  0  0
  -20.3249   -4.5804  -26.5159 N   0  0  0  0  0  0  0  0  0  0  0  0
  -23.6907   -3.5442  -30.8006 O   0  0  0  0  0  0  0  0  0  0  0  0
  -20.9655   -3.7199  -31.2899 O   0  0  0  0  0  0  0  0  0  0  0  0
  -26.2001   -4.0932  -22.7873 O   0  0  0  0  0  0  0  0  0  0  0  0
  -17.5395   -5.3436  -35.9334 H   0  0  0  0  0  0  0  0  0  0  0  0
  -19.1495   -7.1714  -35.4620 H   0  0  0  0  0  0  0  0  0  0  0  0
  -17.7230   -3.1859  -34.7217 H   0  0  0  0  0  0  0  0  0  0  0  0
  -20.9390   -6.8477  -33.7865 H   0  0  0  0  0  0  0  0  0  0  0  0
  -19.5087   -2.8524  -33.0444 H   0  0  0  0  0  0  0  0  0  0  0  0
  -24.3889   -3.9150  -28.2987 H   0  0  0  0  0  0  0  0  0  0  0  0
  -19.4925   -4.2227  -29.1955 H   0  0  0  0  0  0  0  0  0  0  0  0
  -13.9410   -6.9867  -27.0590 H   0  0  0  0  0  0  0  0  0  0  0  0
  -14.2121   -4.7854  -25.4148 H   0  0  0  0  0  0  0  0  0  0  0  0
  -18.8327   -6.4616  -27.6609 H   0  0  0  0  0  0  0  0  0  0  0  0
  -18.7996   -3.0418  -25.0166 H   0  0  0  0  0  0  0  0  0  0  0  0
  -16.3496   -3.3119  -24.7201 H   0  0  0  0  0  0  0  0  0  0  0  0
  -22.8767   -6.3925  -23.7874 H   0  0  0  0  0  0  0  0  0  0  0  0
  -24.3617   -7.1552  -24.3787 H   0  0  0  0  0  0  0  0  0  0  0  0
  -24.6632   -2.9658  -23.5404 H   0  0  0  0  0  0  0  0  0  0  0  0
  -23.0688   -3.6831  -23.2894 H   0  0  0  0  0  0  0  0  0  0  0  0
  -22.7136   -6.6885  -26.2368 H   0  0  0  0  0  0  0  0  0  0  0  0
  -24.2894   -5.9516  -26.4698 H   0  0  0  0  0  0  0  0  0  0  0  0
  -24.5597   -3.3552  -25.9396 H   0  0  0  0  0  0  0  0  0  0  0  0
  -23.1477   -2.4363  -25.4466 H   0  0  0  0  0  0  0  0  0  0  0  0
  -21.0915   -3.5723  -24.8199 H   0  0  0  0  0  0  0  0  0  0  0  0
  -21.1172   -5.3344  -24.7363 H   0  0  0  0  0  0  0  0  0  0  0  0
  -24.6870   -2.1041  -31.8969 H   0  0  0  0  0  0  0  0  0  0  0  0
  -23.0624   -1.6407  -31.3018 H   0  0  0  0  0  0  0  0  0  0  0  0
  -24.4384   -1.7317  -30.1710 H   0  0  0  0  0  0  0  0  0  0  0  0
  -27.8643   -3.4058  -21.7851 H   0  0  0  0  0  0  0  0  0  0  0  0
  -27.2864   -5.0330  -21.3094 H   0  0  0  0  0  0  0  0  0  0  0  0
  -28.1271   -4.8001  -22.8649 H   0  0  0  0  0  0  0  0  0  0  0  0
  -22.3292   -4.2207  -32.7527 H   0  0  0  0  0  0  0  0  0  0  0  0
  -21.6913   -5.5791  -31.8123 H   0  0  0  0  0  0  0  0  0  0  0  0
  1  2  2  0  0  0  0
  1  3  1  0  0  0  0
  2  4  1  0  0  0  0
  3  5  2  0  0  0  0
  4 11  2  0  0  0  0
  5 11  1  0  0  0  0
  6 10  2  0  0  0  0
  6 13  1  0  0  0  0
  7 12  2  0  0  0  0
  7 14  1  0  0  0  0
  8  9  2  0  0  0  0
  8 30  1  0  0  0  0
  9 32  1  0  0  0  0
 10 12  1  0  0  0  0
 10 26  1  0  0  0  0
 11 29  1  0  0  0  0
 12 33  1  0  0  0  0
 13 14  2  0  0  0  0
 13 34  1  0  0  0  0
 14 35  1  0  0  0  0
 15 16  1  0  0  0  0
 15 30  2  0  0  0  0
 15 32  1  0  0  0  0
 16 19  2  0  0  0  0
 17 18  2  0  0  0  0
 17 19  1  0  0  0  0
 18 32  1  0  0  0  0
 19 33  1  0  0  0  0
 20 21  1  0  0  0  0
 20 22  1  0  0  0  0
 20 31  2  0  0  0  0
 21 23  1  0  0  0  0
 22 24  1  0  0  0  0
 23 26  1  0  0  0  0
 24 26  1  0  0  0  0
 25 26  1  0  0  0  0
 25 33  1  0  0  0  0
 27 34  1  0  0  0  0
 28 36  1  0  0  0  0
 29 35  1  0  0  0  0
 31 36  1  0  0  0  0
  1 37  1  0  0  0  0
  2 38  1  0  0  0  0
  3 39  1  0  0  0  0
  4 40  1  0  0  0  0
  5 41  1  0  0  0  0
  6 42  1  0  0  0  0
  7 43  1  0  0  0  0
  8 44  1  0  0  0  0
  9 45  1  0  0  0  0
 16 46  1  0  0  0  0
 17 47  1  0  0  0  0
 18 48  1  0  0  0  0
 21 49  1  0  0  0  0
 21 50  1  0  0  0  0
 22 51  1  0  0  0  0
 22 52  1  0  0  0  0
 23 53  1  0  0  0  0
 23 54  1  0  0  0  0
 24 55  1  0  0  0  0
 24 56  1  0  0  0  0
 25 57  1  0  0  0  0
 25 58  1  0  0  0  0
 27 59  1  0  0  0  0
 27 60  1  0  0  0  0
 27 61  1  0  0  0  0
 28 62  1  0  0  0  0
 28 63  1  0  0  0  0
 28 64  1  0  0  0  0
 29 65  1  0  0  0  0
 29 66  1  0  0  0  0
M  END
> <SMILES>
CON=C1CCC2(CC1)CN(c1ccn3ccnc3c1)c1cc(c(cc12)OC)OCc1ccccc1

> <FORMATTED_ID>
H3D-014926

> <MOLFORMULA>
C29H30N4O3

> <Exact Mass>
482.23

> <XLogP>
7.02

> <TPSA_NOPS>
60.6

> <s_m_source_file>
ligprep_h3d.sdf

> <i_m_source_file_index>
5330

> <i_lp_mmshare_version>
55123

> <i_f3d_flags>
0

> <s_epik_input>
W0NIM11PTj1DKFtDSDJdW0NIMl0xKVtDSDJdW0NIMl1bQ0BdMTJjM2MoTihbQ0gyXTIpYyhbY0hdW2NIXTQpW2NIXWMobjQ1KW5bY0hdW2NIXTUpW2NIXWMoYyhbY0hdMylPW0NIM10pT1tDSDJdYzZbY0hdW2NIXVtjSF1bY0hdW2NIXTY=

> <s_epik_cmdline>
J2VwaWtfcHl0aG9uJywgJy1waHQnLCAnMC41JywgJy1waCcsICc3LjUnLCAnLXRuJywgJzgnLCAnLW1hJywgJzUwMCcsICctaW1hZScsICc8aW5maWxlLm1hZT4nLCAnLW9tYWUnLCAnPG91dGZpbGUubWFlPic=

> <r_lp_tautomer_probability>
1

> <r_epik_Ionization_Penalty>
0.493454

> <r_epik_Ionization_Penalty_Charging>
0.493454

> <r_epik_Ionization_Penalty_Neutral>
1.98992e-08

> <r_epik_State_Penalty>
0.499367

> <r_epik_Charging_Adjusted_Penalty>
0.992821

> <i_epik_Tot_Q>
0

> <i_epik_Tot_abs_Q>
0

> <s_epik_Chemistry_Notes>
This compound has an imine and may undergo hydrolysis.

> <s_lp_Force_Field>
S-OPLS

> <r_lp_Energy>
63.4651

> <b_lp_Chiralities_Consistent>
1

> <s_lp_Variant>
ligprep_h3d.sdf:5330-2

> <ROCS_ShapeQuery>
_7L13

> <ROCS_TanimotoCombo>
0.697 

> <ROCS_ShapeTanimoto>
0.630 

> <ROCS_ColorTanimoto>
0.067 

> <ROCS_RefTversky>
0.777 

> <ROCS_RefColorTversky>
0.133 

> <ROCS_RefTverskyCombo>
0.910 

> <ROCS_FitTversky>
0.769 

> <ROCS_FitColorTversky>
0.120 

> <ROCS_FitTverskyCombo>
0.889 

> <ROCS_ColorScore>
-1.202

> <ROCS_Overlap>
1290.919

> <ROCS_Rank>
403                 

$$$$
ligprep_h3d.sdf:4985_1999
  -OEChem-08212117123D

 65 69  0     1  0  0  0  0  0999 V2000
  -18.9728   -7.0627  -34.8299 C   0  0  0  0  0  0  0  0  0  0  0  0
  -18.8490   -5.7140  -34.4965 C   0  0  0  0  0  0  0  0  0  0  0  0
  -20.2215   -7.6821  -34.7783 C   0  0  0  0  0  0  0  0  0  0  0  0
  -19.9739   -4.9846  -34.1114 C   0  0  0  0  0  0  0  0  0  0  0  0
  -21.3464   -6.9528  -34.3932 C   0  0  0  0  0  0  0  0  0  0  0  0
  -24.8787   -4.3984  -25.3120 C   0  0  0  0  0  0  0  0  0  0  0  0
  -23.3051   -4.7282  -23.5087 C   0  0  0  0  0  0  0  0  0  0  0  0
  -25.9307   -4.4098  -24.3961 C   0  0  0  0  0  0  0  0  0  0  0  0
  -24.3570   -4.7395  -22.5928 C   0  0  0  0  0  0  0  0  0  0  0  0
  -16.9381   -5.9165  -26.0312 C   0  0  0  0  0  0  0  0  0  0  0  0
  -17.2297   -3.7166  -25.0761 C   0  0  0  0  0  0  0  0  0  0  0  0
  -15.4838   -5.1694  -24.2524 C   0  0  0  0  0  0  0  0  0  0  0  0
  -21.2226   -5.6041  -34.0597 C   0  0  0  0  0  0  0  0  0  0  0  0
  -17.6173   -4.6989  -25.9873 C   0  0  0  0  0  0  0  0  0  0  0  0
  -23.5659   -4.5577  -24.8683 C   0  0  0  0  0  0  0  0  0  0  0  0
  -25.6699   -4.5803  -23.0365 C   0  0  0  0  0  0  0  0  0  0  0  0
  -15.8714   -6.1517  -25.1637 C   0  0  0  0  0  0  0  0  0  0  0  0
  -16.1629   -3.9518  -24.2086 C   0  0  0  0  0  0  0  0  0  0  0  0
  -21.7752   -3.8800  -31.4383 C   0  0  0  0  0  0  0  0  0  0  0  0
  -21.9046   -5.3593  -29.3811 C   0  0  0  0  0  0  0  0  0  0  0  0
  -18.9624   -4.9407  -28.1713 C   0  0  0  0  0  0  0  0  0  0  0  0
  -19.6850   -3.4454  -26.8777 C   0  0  0  0  0  0  0  0  0  0  0  0
  -20.5912   -3.3145  -29.3366 C   0  0  0  0  0  0  0  0  0  0  0  0
  -21.5304   -5.0799  -27.9265 C   0  0  1  0  0  0  0  0  0  0  0  0
  -20.3079   -4.1635  -28.1006 C   0  0  0  0  0  0  0  0  0  0  0  0
  -22.4400   -4.8157  -33.6430 C   0  0  0  0  0  0  0  0  0  0  0  0
  -22.6713   -4.3794  -27.1907 C   0  0  0  0  0  0  0  0  0  0  0  0
  -22.6712   -4.8700  -32.1387 C   0  0  2  0  0  0  0  0  0  0  0  0
  -18.6891   -4.4618  -26.8595 N   0  0  0  0  0  0  0  0  0  0  0  0
  -21.4573   -4.1826  -30.1238 N   0  0  0  0  0  0  0  0  0  0  0  0
  -23.9906   -4.4609  -31.7520 N   0  0  0  0  0  0  0  0  0  0  0  0
  -22.5125   -4.5464  -25.7855 N   0  0  0  0  0  0  0  0  0  0  0  0
  -21.3766   -2.8750  -32.0296 O   0  0  0  0  0  0  0  0  0  0  0  0
  -26.6801   -4.5912  -22.1570 F   0  0  0  0  0  0  0  0  0  0  0  0
  -15.2184   -7.3204  -25.2073 F   0  0  0  0  0  0  0  0  0  0  0  0
  -15.7895   -3.0077  -23.3349 F   0  0  0  0  0  0  0  0  0  0  0  0
  -18.0970   -7.6301  -35.1310 H   0  0  0  0  0  0  0  0  0  0  0  0
  -17.8769   -5.2312  -34.5377 H   0  0  0  0  0  0  0  0  0  0  0  0
  -20.3185   -8.7319  -35.0388 H   0  0  0  0  0  0  0  0  0  0  0  0
  -19.8679   -3.9342  -33.8532 H   0  0  0  0  0  0  0  0  0  0  0  0
  -22.3153   -7.4438  -34.3557 H   0  0  0  0  0  0  0  0  0  0  0  0
  -25.0933   -4.2645  -26.3692 H   0  0  0  0  0  0  0  0  0  0  0  0
  -22.2859   -4.8535  -23.1520 H   0  0  0  0  0  0  0  0  0  0  0  0
  -26.9529   -4.2856  -24.7412 H   0  0  0  0  0  0  0  0  0  0  0  0
  -24.1546   -4.8726  -21.5342 H   0  0  0  0  0  0  0  0  0  0  0  0
  -17.2313   -6.6884  -26.7378 H   0  0  0  0  0  0  0  0  0  0  0  0
  -17.7513   -2.7639  -25.0342 H   0  0  0  0  0  0  0  0  0  0  0  0
  -14.6523   -5.3526  -23.5783 H   0  0  0  0  0  0  0  0  0  0  0  0
  -21.3400   -6.2124  -29.7729 H   0  0  0  0  0  0  0  0  0  0  0  0
  -22.9696   -5.5454  -29.5442 H   0  0  0  0  0  0  0  0  0  0  0  0
  -19.0452   -6.0336  -28.2048 H   0  0  0  0  0  0  0  0  0  0  0  0
  -18.2329   -4.6037  -28.9139 H   0  0  0  0  0  0  0  0  0  0  0  0
  -19.2773   -2.4462  -27.0560 H   0  0  0  0  0  0  0  0  0  0  0  0
  -20.2950   -3.4471  -25.9673 H   0  0  0  0  0  0  0  0  0  0  0  0
  -21.1581   -2.4084  -29.0903 H   0  0  0  0  0  0  0  0  0  0  0  0
  -19.6968   -3.0347  -29.9043 H   0  0  0  0  0  0  0  0  0  0  0  0
  -21.2845   -6.0082  -27.4006 H   0  0  0  0  0  0  0  0  0  0  0  0
  -22.3104   -3.7753  -33.9705 H   0  0  0  0  0  0  0  0  0  0  0  0
  -23.3209   -5.1826  -34.1874 H   0  0  0  0  0  0  0  0  0  0  0  0
  -22.6290   -3.3254  -27.4594 H   0  0  0  0  0  0  0  0  0  0  0  0
  -23.6004   -4.8348  -27.5289 H   0  0  0  0  0  0  0  0  0  0  0  0
  -22.4795   -5.8565  -31.7159 H   0  0  0  0  0  0  0  0  0  0  0  0
  -23.9386   -3.6123  -31.2237 H   0  0  0  0  0  0  0  0  0  0  0  0
  -24.5482   -4.3085  -32.5691 H   0  0  0  0  0  0  0  0  0  0  0  0
  -21.5714   -4.6690  -25.4026 H   0  0  0  0  0  0  0  0  0  0  0  0
  1  2  2  0  0  0  0
  1  3  1  0  0  0  0
  2  4  1  0  0  0  0
  3  5  2  0  0  0  0
  4 13  2  0  0  0  0
  5 13  1  0  0  0  0
  6  8  1  0  0  0  0
  6 15  2  0  0  0  0
  7  9  2  0  0  0  0
  7 15  1  0  0  0  0
  8 16  2  0  0  0  0
  9 16  1  0  0  0  0
 10 14  2  0  0  0  0
 10 17  1  0  0  0  0
 11 14  1  0  0  0  0
 11 18  2  0  0  0  0
 12 17  2  0  0  0  0
 12 18  1  0  0  0  0
 13 26  1  0  0  0  0
 14 29  1  0  0  0  0
 15 32  1  0  0  0  0
 16 34  1  0  0  0  0
 17 35  1  0  0  0  0
 18 36  1  0  0  0  0
 19 28  1  0  0  0  0
 19 30  1  0  0  0  0
 19 33  2  0  0  0  0
 20 24  1  0  0  0  0
 20 30  1  0  0  0  0
 21 25  1  0  0  0  0
 21 29  1  0  0  0  0
 22 25  1  0  0  0  0
 22 29  1  0  0  0  0
 23 25  1  0  0  0  0
 23 30  1  0  0  0  0
 24 25  1  0  0  0  0
 24 27  1  0  0  0  0
 26 28  1  0  0  0  0
 27 32  1  0  0  0  0
 28 31  1  0  0  0  0
  1 37  1  0  0  0  0
  2 38  1  0  0  0  0
  3 39  1  0  0  0  0
  4 40  1  0  0  0  0
  5 41  1  0  0  0  0
  6 42  1  0  0  0  0
  7 43  1  0  0  0  0
  8 44  1  0  0  0  0
  9 45  1  0  0  0  0
 10 46  1  0  0  0  0
 11 47  1  0  0  0  0
 12 48  1  0  0  0  0
 20 49  1  0  0  0  0
 20 50  1  0  0  0  0
 21 51  1  0  0  0  0
 21 52  1  0  0  0  0
 22 53  1  0  0  0  0
 22 54  1  0  0  0  0
 23 55  1  0  0  0  0
 23 56  1  0  0  0  0
 24 57  1  0  0  0  0
 26 58  1  0  0  0  0
 26 59  1  0  0  0  0
 27 60  1  0  0  0  0
 27 61  1  0  0  0  0
 28 62  1  0  0  0  0
 31 63  1  0  0  0  0
 31 64  1  0  0  0  0
 32 65  1  0  0  0  0
M  END
> <SMILES>
N[C@@H](Cc1ccccc1)C(=O)N1CC(CNc2ccc(cc2)F)C2(C1)CN(C2)c1cc(cc(c1)F)F

> <FORMATTED_ID>
H3D-008628

> <MOLFORMULA>
C28H29F3N4O

> <Exact Mass>
494.23

> <XLogP>
3.64

> <TPSA_NOPS>
61.6

> <s_m_source_file>
ligprep_h3d.sdf

> <i_m_source_file_index>
4985

> <i_lp_mmshare_version>
55123

> <i_f3d_flags>
0

> <s_epik_input>
W2NIXTFbY0hdW2NIXVtjSF1bY0hdYzFbQ0gyXVtDQEhdKFtOSDJdKUMoPU8pTihbQ0gyXTIpW0NIMl1bQ0BIXShbQ0gyXVtOSF1jM1tjSF1bY0hdYyhGKVtjSF1bY0hdMylDMjRbQ0gyXU4oW0NIMl00KWM1W2NIXWMoRilbY0hdYyhGKVtjSF01

> <s_epik_cmdline>
J2VwaWtfcHl0aG9uJywgJy1waHQnLCAnMC41JywgJy1waCcsICc3LjUnLCAnLXRuJywgJzgnLCAnLW1hJywgJzUwMCcsICctaW1hZScsICc8aW5maWxlLm1hZT4nLCAnLW9tYWUnLCAnPG91dGZpbGUubWFlPic=

> <r_epik_Ionization_Penalty>
0.442245

> <r_epik_Ionization_Penalty_Charging>
0

> <r_epik_Ionization_Penalty_Neutral>
0.442245

> <r_epik_State_Penalty>
0.442014

> <r_epik_Charging_Adjusted_Penalty>
0.442014

> <i_epik_Tot_Q>
0

> <i_epik_Tot_abs_Q>
0

> <s_lp_Force_Field>
S-OPLS

> <r_lp_Energy>
40.9504

> <b_lp_Chiralities_Consistent>
1

> <s_lp_Variant>
ligprep_h3d.sdf:4985-2

> <ROCS_ShapeQuery>
_7L13

> <ROCS_TanimotoCombo>
0.701 

> <ROCS_ShapeTanimoto>
0.641 

> <ROCS_ColorTanimoto>
0.060 

> <ROCS_RefTversky>
0.777 

> <ROCS_RefColorTversky>
0.114 

> <ROCS_RefTverskyCombo>
0.891 

> <ROCS_FitTversky>
0.786 

> <ROCS_FitColorTversky>
0.114 

> <ROCS_FitTverskyCombo>
0.899 

> <ROCS_ColorScore>
-1.024

> <ROCS_Overlap>
1289.330

> <ROCS_Rank>
404                 

$$$$
ligprep_h3d.sdf:713_449
  -OEChem-08212117123D

 60 65  0     1  0  0  0  0  0999 V2000
  -20.9444   -5.1231  -29.5024 C   0  0  0  0  0  0  0  0  0  0  0  0
  -21.7273   -4.3747  -30.3840 C   0  0  0  0  0  0  0  0  0  0  0  0
  -21.0661   -4.8830  -28.1126 C   0  0  0  0  0  0  0  0  0  0  0  0
  -21.9790   -3.9420  -27.5802 C   0  0  0  0  0  0  0  0  0  0  0  0
  -22.5898   -3.4364  -29.8611 C   0  0  0  0  0  0  0  0  0  0  0  0
  -22.7460   -3.1859  -28.4976 C   0  0  0  0  0  0  0  0  0  0  0  0
  -21.9205   -4.2699  -31.7740 C   0  0  0  0  0  0  0  0  0  0  0  0
  -18.9010   -3.7442  -26.2336 C   0  0  0  0  0  0  0  0  0  0  0  0
  -19.1811   -5.9616  -25.0064 C   0  0  0  0  0  0  0  0  0  0  0  0
  -17.0226   -5.0418  -25.8230 C   0  0  0  0  0  0  0  0  0  0  0  0
  -20.1971   -5.6919  -27.1872 C   0  0  0  0  0  0  0  0  0  0  0  0
  -19.7414   -5.7094  -34.3712 C   0  0  0  0  0  0  0  0  0  0  0  0
  -19.9426   -4.6854  -33.2596 C   0  0  0  0  0  0  0  0  0  0  0  0
  -21.6784   -6.3655  -33.1297 C   0  0  0  0  0  0  0  0  0  0  0  0
  -23.0799   -2.8304  -25.6475 C   0  0  0  0  0  0  0  0  0  0  0  0
  -21.1868   -4.4468  -25.2345 C   0  0  2  0  0  0  0  0  0  0  0  0
  -20.4603   -6.9437  -33.8475 C   0  0  1  0  0  0  0  0  0  0  0  0
  -23.4434   -3.1579  -24.1963 C   0  0  1  0  0  0  0  0  0  0  0  0
  -21.0566   -3.5071  -23.9999 C   0  0  2  0  0  0  0  0  0  0  0  0
  -19.8481   -4.9183  -25.8918 C   0  0  2  0  0  0  0  0  0  0  0  0
  -24.3955   -4.3470  -24.0833 C   0  0  0  0  0  0  0  0  0  0  0  0
  -20.0858   -3.9502  -22.9126 C   0  0  0  0  0  0  0  0  0  0  0  0
  -19.8492   -7.8815  -35.9054 C   0  0  0  0  0  0  0  0  0  0  0  0
  -22.8271   -3.3408  -32.0912 N   0  0  0  0  0  0  0  0  0  0  0  0
  -17.6297   -4.0586  -26.4888 N   0  5  0  0  0  0  0  0  0  0  0  0
  -17.8024   -5.9104  -25.0616 N   0  0  0  0  0  0  0  0  0  0  0  0
  -22.0947   -3.7691  -26.1987 N   0  0  3  0  0  0  0  0  0  0  0  0
  -21.2265   -5.0554  -32.6697 N   0  0  0  0  0  0  0  0  0  0  0  0
  -19.3409   -2.6029  -26.3718 O   0  0  0  0  0  0  0  0  0  0  0  0
  -19.7941   -6.8144  -24.3681 O   0  0  0  0  0  0  0  0  0  0  0  0
  -15.8034   -5.2272  -25.8669 O   0  0  0  0  0  0  0  0  0  0  0  0
  -23.2482   -2.8127  -30.8763 O   0  0  0  0  0  0  0  0  0  0  0  0
  -22.3260   -3.3902  -23.3437 O   0  0  0  0  0  0  0  0  0  0  0  0
  -20.8519   -7.7997  -34.9023 O   0  0  0  0  0  0  0  0  0  0  0  0
  -23.5398   -2.1721  -28.1322 F   0  0  0  0  0  0  0  0  0  0  0  0
  -20.2481   -5.8685  -29.8760 H   0  0  0  0  0  0  0  0  0  0  0  0
  -20.7350   -6.6208  -26.9532 H   0  0  0  0  0  0  0  0  0  0  0  0
  -19.2775   -5.9887  -27.7086 H   0  0  0  0  0  0  0  0  0  0  0  0
  -20.1457   -5.3511  -35.3222 H   0  0  0  0  0  0  0  0  0  0  0  0
  -18.6724   -5.9191  -34.4910 H   0  0  0  0  0  0  0  0  0  0  0  0
  -19.1267   -4.7236  -32.5294 H   0  0  0  0  0  0  0  0  0  0  0  0
  -20.0032   -3.6702  -33.6698 H   0  0  0  0  0  0  0  0  0  0  0  0
  -22.5485   -6.2804  -33.7914 H   0  0  0  0  0  0  0  0  0  0  0  0
  -21.9404   -6.9778  -32.2584 H   0  0  0  0  0  0  0  0  0  0  0  0
  -23.9885   -2.8973  -26.2807 H   0  0  0  0  0  0  0  0  0  0  0  0
  -22.7962   -1.7672  -25.6878 H   0  0  0  0  0  0  0  0  0  0  0  0
  -21.7385   -5.3414  -24.9034 H   0  0  0  0  0  0  0  0  0  0  0  0
  -19.8149   -7.5227  -33.1550 H   0  0  0  0  0  0  0  0  0  0  0  0
  -24.0161   -2.2676  -23.7597 H   0  0  0  0  0  0  0  0  0  0  0  0
  -20.7523   -2.4905  -24.3079 H   0  0  0  0  0  0  0  0  0  0  0  0
  -23.9211   -5.2440  -24.4815 H   0  0  0  0  0  0  0  0  0  0  0  0
  -25.3075   -4.1496  -24.6469 H   0  0  0  0  0  0  0  0  0  0  0  0
  -24.6556   -4.5187  -23.0386 H   0  0  0  0  0  0  0  0  0  0  0  0
  -20.3416   -4.9530  -22.5704 H   0  0  0  0  0  0  0  0  0  0  0  0
  -20.1353   -3.2646  -22.0666 H   0  0  0  0  0  0  0  0  0  0  0  0
  -19.0678   -3.9583  -23.3023 H   0  0  0  0  0  0  0  0  0  0  0  0
  -20.1842   -8.5493  -36.7028 H   0  0  0  0  0  0  0  0  0  0  0  0
  -18.9224   -8.2582  -35.4654 H   0  0  0  0  0  0  0  0  0  0  0  0
  -19.6760   -6.8844  -36.3170 H   0  0  0  0  0  0  0  0  0  0  0  0
  -17.3017   -6.5791  -24.4840 H   0  0  0  0  0  0  0  0  0  0  0  0
  1  2  2  0  0  0  0
  1  3  1  0  0  0  0
  2  5  1  0  0  0  0
  2  7  1  0  0  0  0
  3  4  2  0  0  0  0
  3 11  1  0  0  0  0
  4  6  1  0  0  0  0
  4 27  1  0  0  0  0
  5  6  2  0  0  0  0
  5 32  1  0  0  0  0
  6 35  1  0  0  0  0
  7 24  2  0  0  0  0
  7 28  1  0  0  0  0
  8 20  1  0  0  0  0
  8 25  1  0  0  0  0
  8 29  2  0  0  0  0
  9 20  1  0  0  0  0
  9 26  1  0  0  0  0
  9 30  2  0  0  0  0
 10 25  1  0  0  0  0
 10 26  1  0  0  0  0
 10 31  2  0  0  0  0
 11 20  1  0  0  0  0
 12 13  1  0  0  0  0
 12 17  1  0  0  0  0
 13 28  1  0  0  0  0
 14 17  1  0  0  0  0
 14 28  1  0  0  0  0
 15 18  1  0  0  0  0
 15 27  1  0  0  0  0
 16 19  1  0  0  0  0
 16 20  1  0  0  0  0
 16 27  1  0  0  0  0
 17 34  1  0  0  0  0
 18 21  1  0  0  0  0
 18 33  1  0  0  0  0
 19 22  1  0  0  0  0
 19 33  1  0  0  0  0
 23 34  1  0  0  0  0
 24 32  1  0  0  0  0
  1 36  1  0  0  0  0
 11 37  1  0  0  0  0
 11 38  1  0  0  0  0
 12 39  1  0  0  0  0
 12 40  1  0  0  0  0
 13 41  1  0  0  0  0
 13 42  1  0  0  0  0
 14 43  1  0  0  0  0
 14 44  1  0  0  0  0
 15 45  1  0  0  0  0
 15 46  1  0  0  0  0
 16 47  1  0  0  0  0
 17 48  1  0  0  0  0
 18 49  1  0  0  0  0
 19 50  1  0  0  0  0
 21 51  1  0  0  0  0
 21 52  1  0  0  0  0
 21 53  1  0  0  0  0
 22 54  1  0  0  0  0
 22 55  1  0  0  0  0
 22 56  1  0  0  0  0
 23 57  1  0  0  0  0
 23 58  1  0  0  0  0
 23 59  1  0  0  0  0
 26 60  1  0  0  0  0
M  CHG  1  25  -1
M  END
> <SMILES>
CO[C@H]1CCN(C1)c1noc2c(c3c(cc12)CC1([C@H]2[C@H](C)O[C@H](C)CN23)C(=O)NC(=O)NC1=O)F

> <FORMATTED_ID>
H3D-004936

> <MOLFORMULA>
C23H26FN5O6

> <Exact Mass>
487.19

> <XLogP>
0.55

> <TPSA_NOPS>
126.5

> <s_m_source_file>
ligprep_h3d.sdf

> <i_m_source_file_index>
713

> <i_lp_mmshare_version>
55123

> <i_f3d_flags>
0

> <s_epik_input>
W0NIM11PW0NASF0xW0NIMl1bQ0gyXU4oW0NIMl0xKWMybm9jKGMzRiljMltjSF1jKFtDSDJdNCljM04oW0NIMl1bQ0BASF0oW0NIM10pT1tDQEhdNVtDSDNdKVtDQEhdNUM0NkMoPU8pW05IXUMoPU8pW05IXUM2PU8=

> <s_epik_cmdline>
J2VwaWtfcHl0aG9uJywgJy1waHQnLCAnMC41JywgJy1waCcsICc3LjUnLCAnLXRuJywgJzgnLCAnLW1hJywgJzUwMCcsICctaW1hZScsICc8aW5maWxlLm1hZT4nLCAnLW9tYWUnLCAnPG91dGZpbGUubWFlPic=

> <r_lp_tautomer_probability>
1

> <r_epik_Ionization_Penalty>
0.455393

> <r_epik_Ionization_Penalty_Charging>
0.455373

> <r_epik_Ionization_Penalty_Neutral>
1.99137e-05

> <r_epik_State_Penalty>
0.458483

> <r_epik_Charging_Adjusted_Penalty>
0.913857

> <i_epik_Tot_Q>
-1

> <i_epik_Tot_abs_Q>
1

> <s_lp_Force_Field>
S-OPLS

> <r_lp_Energy>
55.3628

> <b_lp_Chiralities_Consistent>
1

> <s_lp_Variant>
ligprep_h3d.sdf:713-2

> <ROCS_ShapeQuery>
_7L13

> <ROCS_TanimotoCombo>
0.765 

> <ROCS_ShapeTanimoto>
0.635 

> <ROCS_ColorTanimoto>
0.130 

> <ROCS_RefTversky>
0.777 

> <ROCS_RefColorTversky>
0.297 

> <ROCS_RefTverskyCombo>
1.074 

> <ROCS_FitTversky>
0.777 

> <ROCS_FitColorTversky>
0.188 

> <ROCS_FitTverskyCombo>
0.965 

> <ROCS_ColorScore>
-2.767

> <ROCS_Overlap>
1290.084

> <ROCS_Rank>
405                 

$$$$
ligprep_h3d.sdf:5087_1896
  -OEChem-08212117123D

 70 73  0     0  0  0  0  0  0999 V2000
  -23.3983   -5.4998  -26.4147 C   0  0  0  0  0  0  0  0  0  0  0  0
  -22.2681   -3.7298  -25.2203 C   0  0  0  0  0  0  0  0  0  0  0  0
  -24.2945   -5.6423  -25.3554 C   0  0  0  0  0  0  0  0  0  0  0  0
  -23.1643   -3.8722  -24.1610 C   0  0  0  0  0  0  0  0  0  0  0  0
  -21.6855   -4.0785  -28.7597 C   0  0  0  0  0  0  0  0  0  0  0  0
  -22.3850   -4.5436  -26.3471 C   0  0  0  0  0  0  0  0  0  0  0  0
  -24.1776   -4.8285  -24.2286 C   0  0  0  0  0  0  0  0  0  0  0  0
  -21.4576   -4.3962  -27.4431 C   0  0  0  0  0  0  0  0  0  0  0  0
  -20.4069   -4.0805  -29.3487 C   0  0  0  0  0  0  0  0  0  0  0  0
  -19.7420   -5.7900  -35.3906 C   0  0  0  0  0  0  0  0  0  0  0  0
  -16.9297   -5.5132  -24.5430 C   0  0  0  0  0  0  0  0  0  0  0  0
  -17.6381   -4.1677  -24.4121 C   0  0  0  0  0  0  0  0  0  0  0  0
  -17.8938   -6.6215  -24.9582 C   0  0  0  0  0  0  0  0  0  0  0  0
  -18.3852   -3.7965  -25.6918 C   0  0  0  0  0  0  0  0  0  0  0  0
  -18.6424   -6.2665  -26.2415 C   0  0  0  0  0  0  0  0  0  0  0  0
  -20.0053   -6.0895  -32.8960 C   0  0  0  0  0  0  0  0  0  0  0  0
  -19.9789   -3.8259  -33.8954 C   0  0  0  0  0  0  0  0  0  0  0  0
  -21.1316   -5.6321  -31.9663 C   0  0  0  0  0  0  0  0  0  0  0  0
  -21.1079   -3.4231  -32.9458 C   0  0  0  0  0  0  0  0  0  0  0  0
  -19.3569   -4.9106  -26.1152 C   0  0  0  0  0  0  0  0  0  0  0  0
  -18.0823   -7.1744  -37.2665 C   0  0  0  0  0  0  0  0  0  0  0  0
  -19.2032   -9.2630  -36.4354 C   0  0  0  0  0  0  0  0  0  0  0  0
  -20.5637   -7.4763  -37.5601 C   0  0  0  0  0  0  0  0  0  0  0  0
  -20.0598   -3.7969  -30.7816 C   0  0  0  0  0  0  0  0  0  0  0  0
  -25.1356   -4.9813  -23.0960 C   0  0  0  0  0  0  0  0  0  0  0  0
  -19.3585   -7.7612  -36.6650 C   0  0  0  0  0  0  0  0  0  0  0  0
  -19.4384   -4.3759  -28.4776 N   0  0  0  0  0  0  0  0  0  0  0  0
  -20.1087   -4.5623  -27.3279 N   0  0  0  0  0  0  0  0  0  0  0  0
  -19.9542   -5.2709  -34.1101 N   0  0  0  0  0  0  0  0  0  0  0  0
  -21.1330   -4.1886  -31.6919 N   0  0  0  0  0  0  0  0  0  0  0  0
  -19.6976   -5.1106  -36.4147 O   0  0  0  0  0  0  0  0  0  0  0  0
  -19.5836   -7.1506  -35.3891 O   0  0  0  0  0  0  0  0  0  0  0  0
  -26.0726   -5.9544  -23.2987 F   0  0  0  0  0  0  0  0  0  0  0  0
  -24.5358   -5.3059  -21.9125 F   0  0  0  0  0  0  0  0  0  0  0  0
  -25.8415   -3.8398  -22.8476 F   0  0  0  0  0  0  0  0  0  0  0  0
  -23.5024   -6.1419  -27.2861 H   0  0  0  0  0  0  0  0  0  0  0  0
  -21.4838   -2.9795  -25.1528 H   0  0  0  0  0  0  0  0  0  0  0  0
  -25.0807   -6.3902  -25.4164 H   0  0  0  0  0  0  0  0  0  0  0  0
  -23.0654   -3.2337  -23.2872 H   0  0  0  0  0  0  0  0  0  0  0  0
  -22.6385   -3.8746  -29.2276 H   0  0  0  0  0  0  0  0  0  0  0  0
  -16.1254   -5.4321  -25.2844 H   0  0  0  0  0  0  0  0  0  0  0  0
  -16.4594   -5.7747  -23.5883 H   0  0  0  0  0  0  0  0  0  0  0  0
  -18.3465   -4.2077  -23.5754 H   0  0  0  0  0  0  0  0  0  0  0  0
  -16.9066   -3.3873  -24.1739 H   0  0  0  0  0  0  0  0  0  0  0  0
  -17.3409   -7.5566  -25.1017 H   0  0  0  0  0  0  0  0  0  0  0  0
  -18.6164   -6.7981  -24.1520 H   0  0  0  0  0  0  0  0  0  0  0  0
  -18.9315   -2.8576  -25.5397 H   0  0  0  0  0  0  0  0  0  0  0  0
  -17.6597   -3.6079  -26.4945 H   0  0  0  0  0  0  0  0  0  0  0  0
  -17.9339   -6.2392  -27.0800 H   0  0  0  0  0  0  0  0  0  0  0  0
  -19.3687   -7.0549  -26.4740 H   0  0  0  0  0  0  0  0  0  0  0  0
  -19.0535   -6.0607  -32.3571 H   0  0  0  0  0  0  0  0  0  0  0  0
  -20.1685   -7.1266  -33.2151 H   0  0  0  0  0  0  0  0  0  0  0  0
  -20.1165   -3.3565  -34.8778 H   0  0  0  0  0  0  0  0  0  0  0  0
  -19.0181   -3.4789  -33.5000 H   0  0  0  0  0  0  0  0  0  0  0  0
  -22.0962   -5.9188  -32.4345 H   0  0  0  0  0  0  0  0  0  0  0  0
  -21.0792   -6.2107  -31.0179 H   0  0  0  0  0  0  0  0  0  0  0  0
  -21.0399   -2.3325  -32.7381 H   0  0  0  0  0  0  0  0  0  0  0  0
  -22.0695   -3.5623  -33.4822 H   0  0  0  0  0  0  0  0  0  0  0  0
  -20.1487   -5.0032  -25.3286 H   0  0  0  0  0  0  0  0  0  0  0  0
  -18.1897   -6.0966  -37.4328 H   0  0  0  0  0  0  0  0  0  0  0  0
  -17.2166   -7.3415  -36.6173 H   0  0  0  0  0  0  0  0  0  0  0  0
  -17.8714   -7.6188  -38.2459 H   0  0  0  0  0  0  0  0  0  0  0  0
  -20.1166   -9.6882  -36.0039 H   0  0  0  0  0  0  0  0  0  0  0  0
  -18.3994   -9.4672  -35.7190 H   0  0  0  0  0  0  0  0  0  0  0  0
  -18.9804   -9.7932  -37.3670 H   0  0  0  0  0  0  0  0  0  0  0  0
  -21.4793   -7.8971  -37.1289 H   0  0  0  0  0  0  0  0  0  0  0  0
  -20.7127   -6.4015  -37.7059 H   0  0  0  0  0  0  0  0  0  0  0  0
  -20.4397   -7.9470  -38.5421 H   0  0  0  0  0  0  0  0  0  0  0  0
  -19.8666   -2.7286  -30.9279 H   0  0  0  0  0  0  0  0  0  0  0  0
  -19.1541   -4.3351  -31.0805 H   0  0  0  0  0  0  0  0  0  0  0  0
  1  3  1  0  0  0  0
  1  6  2  0  0  0  0
  2  4  2  0  0  0  0
  2  6  1  0  0  0  0
  3  7  2  0  0  0  0
  4  7  1  0  0  0  0
  5  8  2  0  0  0  0
  5  9  1  0  0  0  0
  6  8  1  0  0  0  0
  7 25  1  0  0  0  0
  8 28  1  0  0  0  0
  9 24  1  0  0  0  0
  9 27  2  0  0  0  0
 10 29  1  0  0  0  0
 10 31  2  0  0  0  0
 10 32  1  0  0  0  0
 11 12  1  0  0  0  0
 11 13  1  0  0  0  0
 12 14  1  0  0  0  0
 13 15  1  0  0  0  0
 14 20  1  0  0  0  0
 15 20  1  0  0  0  0
 16 18  1  0  0  0  0
 16 29  1  0  0  0  0
 17 19  1  0  0  0  0
 17 29  1  0  0  0  0
 18 30  1  0  0  0  0
 19 30  1  0  0  0  0
 20 28  1  0  0  0  0
 21 26  1  0  0  0  0
 22 26  1  0  0  0  0
 23 26  1  0  0  0  0
 24 30  1  0  0  0  0
 25 33  1  0  0  0  0
 25 34  1  0  0  0  0
 25 35  1  0  0  0  0
 26 32  1  0  0  0  0
 27 28  1  0  0  0  0
  1 36  1  0  0  0  0
  2 37  1  0  0  0  0
  3 38  1  0  0  0  0
  4 39  1  0  0  0  0
  5 40  1  0  0  0  0
 11 41  1  0  0  0  0
 11 42  1  0  0  0  0
 12 43  1  0  0  0  0
 12 44  1  0  0  0  0
 13 45  1  0  0  0  0
 13 46  1  0  0  0  0
 14 47  1  0  0  0  0
 14 48  1  0  0  0  0
 15 49  1  0  0  0  0
 15 50  1  0  0  0  0
 16 51  1  0  0  0  0
 16 52  1  0  0  0  0
 17 53  1  0  0  0  0
 17 54  1  0  0  0  0
 18 55  1  0  0  0  0
 18 56  1  0  0  0  0
 19 57  1  0  0  0  0
 19 58  1  0  0  0  0
 20 59  1  0  0  0  0
 21 60  1  0  0  0  0
 21 61  1  0  0  0  0
 21 62  1  0  0  0  0
 22 63  1  0  0  0  0
 22 64  1  0  0  0  0
 22 65  1  0  0  0  0
 23 66  1  0  0  0  0
 23 67  1  0  0  0  0
 23 68  1  0  0  0  0
 24 69  1  0  0  0  0
 24 70  1  0  0  0  0
M  END
> <SMILES>
CC(C)(C)OC(=O)N1CCN(CC1)Cc1cc(n(n1)C1CCCCC1)-c1ccc(cc1)C(F)(F)F

> <FORMATTED_ID>
H3D-012487

> <MOLFORMULA>
C26H35F3N4O2

> <Exact Mass>
492.27

> <XLogP>
6.27

> <TPSA_NOPS>
50.6

> <s_m_source_file>
ligprep_h3d.sdf

> <i_m_source_file_index>
5087

> <i_lp_mmshare_version>
55123

> <i_f3d_flags>
0

> <s_epik_input>
W0NIM11DKFtDSDNdKShbQ0gzXSlPQyg9TylOMVtDSDJdW0NIMl1OKFtDSDJdW0NIMl0xKVtDSDJdYzJbY0hdYygtYzNbY0hdW2NIXWMoQyhGKShGKUYpW2NIXVtjSF0zKW4objIpW0NIXTRbQ0gyXVtDSDJdW0NIMl1bQ0gyXVtDSDJdNA==

> <s_epik_cmdline>
J2VwaWtfcHl0aG9uJywgJy1waHQnLCAnMC41JywgJy1waCcsICc3LjUnLCAnLXRuJywgJzgnLCAnLW1hJywgJzUwMCcsICctaW1hZScsICc8aW5maWxlLm1hZT4nLCAnLW9tYWUnLCAnPG91dGZpbGUubWFlPic=

> <r_lp_tautomer_probability>
1

> <r_epik_Ionization_Penalty>
0.180809

> <r_epik_Ionization_Penalty_Charging>
0

> <r_epik_Ionization_Penalty_Neutral>
0.180809

> <r_epik_State_Penalty>
0.166554

> <r_epik_Charging_Adjusted_Penalty>
0.166554

> <i_epik_Tot_Q>
0

> <i_epik_Tot_abs_Q>
0

> <s_epik_Chemistry_Notes>
This compound has an ester and may undergo hydrolysis at high or low pH.

> <s_lp_Force_Field>
S-OPLS

> <r_lp_Energy>
39.5244

> <b_lp_Chiralities_Consistent>
1

> <s_lp_Variant>
ligprep_h3d.sdf:5087-1

> <ROCS_ShapeQuery>
_7L13

> <ROCS_TanimotoCombo>
0.791 

> <ROCS_ShapeTanimoto>
0.658 

> <ROCS_ColorTanimoto>
0.132 

> <ROCS_RefTversky>
0.777 

> <ROCS_RefColorTversky>
0.222 

> <ROCS_RefTverskyCombo>
0.999 

> <ROCS_FitTversky>
0.812 

> <ROCS_FitColorTversky>
0.247 

> <ROCS_FitTverskyCombo>
1.059 

> <ROCS_ColorScore>
-1.986

> <ROCS_Overlap>
1286.997

> <ROCS_Rank>
406                 

$$$$
ligprep_h3d.sdf:1216_1971
  -OEChem-08212117123D

 71 76  0     1  0  0  0  0  0999 V2000
  -21.6879   -4.2554  -31.6204 C   0  0  0  0  0  0  0  0  0  0  0  0
  -20.1939   -5.9885  -30.8451 C   0  0  0  0  0  0  0  0  0  0  0  0
  -21.2047   -4.4195  -32.9185 C   0  0  0  0  0  0  0  0  0  0  0  0
  -19.7107   -6.1527  -32.1432 C   0  0  0  0  0  0  0  0  0  0  0  0
  -16.9610   -3.9755  -26.0091 C   0  0  0  0  0  0  0  0  0  0  0  0
  -23.5270   -4.9118  -27.6803 C   0  0  0  0  0  0  0  0  0  0  0  0
  -21.0151   -3.8193  -24.5551 C   0  0  0  0  0  0  0  0  0  0  0  0
  -17.3628   -2.6503  -26.2625 C   0  0  0  0  0  0  0  0  0  0  0  0
  -21.3288   -4.3402  -26.8950 C   0  0  0  0  0  0  0  0  0  0  0  0
  -21.1825   -5.0399  -30.5836 C   0  0  0  0  0  0  0  0  0  0  0  0
  -21.6836   -4.8694  -29.2372 C   0  0  0  0  0  0  0  0  0  0  0  0
  -20.2161   -5.3682  -33.1800 C   0  0  0  0  0  0  0  0  0  0  0  0
  -23.0329   -5.0739  -28.9770 C   0  0  0  0  0  0  0  0  0  0  0  0
  -20.8316   -4.5032  -28.1992 C   0  0  0  0  0  0  0  0  0  0  0  0
  -22.6977   -4.5463  -26.6236 C   0  0  0  0  0  0  0  0  0  0  0  0
  -20.4935   -3.9721  -25.8317 C   0  0  0  0  0  0  0  0  0  0  0  0
  -22.3666   -4.0425  -24.3871 C   0  0  0  0  0  0  0  0  0  0  0  0
  -18.1358   -4.6583  -25.8088 C   0  0  0  0  0  0  0  0  0  0  0  0
  -22.9763   -3.9012  -23.0760 C   0  0  0  0  0  0  0  0  0  0  0  0
  -19.8939   -6.7689  -37.4311 C   0  0  0  0  0  0  0  0  0  0  0  0
  -21.2946   -7.1143  -35.5477 C   0  0  0  0  0  0  0  0  0  0  0  0
  -19.1505   -8.7355  -36.4197 C   0  0  0  0  0  0  0  0  0  0  0  0
  -19.0606   -7.2161  -36.2474 C   0  0  2  0  0  0  0  0  0  0  0  0
  -21.0672   -7.6091  -36.9781 C   0  0  2  0  0  0  0  0  0  0  0  0
  -23.9921   -5.4670  -30.0554 C   0  0  0  0  0  0  0  0  0  0  0  0
  -19.3857   -4.2995  -28.5562 C   0  0  0  0  0  0  0  0  0  0  0  0
  -18.3785   -6.0818  -25.5028 C   0  0  0  0  0  0  0  0  0  0  0  0
  -19.6958   -5.5447  -34.5772 C   0  0  0  0  0  0  0  0  0  0  0  0
  -25.0560   -3.2948  -21.8119 C   0  0  0  0  0  0  0  0  0  0  0  0
  -25.7247   -4.5921  -21.3954 C   0  0  0  0  0  0  0  0  0  0  0  0
  -18.6893   -2.4981  -26.2271 N   0  0  0  0  0  0  0  0  0  0  0  0
  -23.2067   -4.3987  -25.3858 N   0  0  0  0  0  0  0  0  0  0  0  0
  -19.1312   -3.7365  -25.9493 N   0  0  0  0  0  0  0  0  0  0  0  0
  -19.9054   -6.9011  -35.0703 N   0  0  1  0  0  0  0  0  0  0  0  0
  -24.3179   -3.5014  -23.0371 N   0  0  0  0  0  0  0  0  0  0  0  0
  -22.3130   -4.1104  -22.0438 O   0  0  0  0  0  0  0  0  0  0  0  0
  -20.5085   -8.9416  -36.8836 O   0  0  0  0  0  0  0  0  0  0  0  0
  -26.6425   -4.9952  -22.4038 O   0  0  0  0  0  0  0  0  0  0  0  0
  -22.4582   -3.5112  -31.4325 H   0  0  0  0  0  0  0  0  0  0  0  0
  -19.7903   -6.6081  -30.0477 H   0  0  0  0  0  0  0  0  0  0  0  0
  -21.6034   -3.8032  -33.7199 H   0  0  0  0  0  0  0  0  0  0  0  0
  -18.9407   -6.8947  -32.3380 H   0  0  0  0  0  0  0  0  0  0  0  0
  -15.9588   -4.3774  -25.9771 H   0  0  0  0  0  0  0  0  0  0  0  0
  -24.5873   -5.0755  -27.4908 H   0  0  0  0  0  0  0  0  0  0  0  0
  -20.3897   -3.5347  -23.7134 H   0  0  0  0  0  0  0  0  0  0  0  0
  -16.7443   -1.7894  -26.4716 H   0  0  0  0  0  0  0  0  0  0  0  0
  -20.1047   -5.6963  -37.4681 H   0  0  0  0  0  0  0  0  0  0  0  0
  -19.4738   -7.1011  -38.3866 H   0  0  0  0  0  0  0  0  0  0  0  0
  -21.8844   -6.1903  -35.5476 H   0  0  0  0  0  0  0  0  0  0  0  0
  -21.7895   -7.8667  -34.9257 H   0  0  0  0  0  0  0  0  0  0  0  0
  -18.4703   -9.1018  -37.1955 H   0  0  0  0  0  0  0  0  0  0  0  0
  -18.9849   -9.3012  -35.4974 H   0  0  0  0  0  0  0  0  0  0  0  0
  -18.0352   -6.8438  -36.1864 H   0  0  0  0  0  0  0  0  0  0  0  0
  -21.9519   -7.5971  -37.6174 H   0  0  0  0  0  0  0  0  0  0  0  0
  -24.4213   -4.5742  -30.5229 H   0  0  0  0  0  0  0  0  0  0  0  0
  -23.4934   -6.0633  -30.8282 H   0  0  0  0  0  0  0  0  0  0  0  0
  -24.8074   -6.0798  -29.6533 H   0  0  0  0  0  0  0  0  0  0  0  0
  -18.8416   -5.2411  -28.4485 H   0  0  0  0  0  0  0  0  0  0  0  0
  -19.2878   -3.9459  -29.5863 H   0  0  0  0  0  0  0  0  0  0  0  0
  -18.9296   -3.5467  -27.9071 H   0  0  0  0  0  0  0  0  0  0  0  0
  -18.3930   -6.2573  -24.4147 H   0  0  0  0  0  0  0  0  0  0  0  0
  -19.3404   -6.4348  -25.9121 H   0  0  0  0  0  0  0  0  0  0  0  0
  -17.6038   -6.7363  -25.9377 H   0  0  0  0  0  0  0  0  0  0  0  0
  -20.1958   -4.8546  -35.2655 H   0  0  0  0  0  0  0  0  0  0  0  0
  -18.6226   -5.3326  -34.6266 H   0  0  0  0  0  0  0  0  0  0  0  0
  -25.7944   -2.5056  -21.9853 H   0  0  0  0  0  0  0  0  0  0  0  0
  -24.3527   -2.9644  -21.0415 H   0  0  0  0  0  0  0  0  0  0  0  0
  -26.2859   -4.4434  -20.4676 H   0  0  0  0  0  0  0  0  0  0  0  0
  -24.9925   -5.3922  -21.2453 H   0  0  0  0  0  0  0  0  0  0  0  0
  -24.7948   -3.2826  -23.9057 H   0  0  0  0  0  0  0  0  0  0  0  0
  -27.0458   -5.8241  -22.0994 H   0  0  0  0  0  0  0  0  0  0  0  0
  1  3  1  0  0  0  0
  1 10  2  0  0  0  0
  2  4  2  0  0  0  0
  2 10  1  0  0  0  0
  3 12  2  0  0  0  0
  4 12  1  0  0  0  0
  5  8  1  0  0  0  0
  5 18  2  0  0  0  0
  6 13  2  0  0  0  0
  6 15  1  0  0  0  0
  7 16  1  0  0  0  0
  7 17  2  0  0  0  0
  8 31  2  0  0  0  0
  9 14  1  0  0  0  0
  9 15  1  0  0  0  0
  9 16  2  0  0  0  0
 10 11  1  0  0  0  0
 11 13  1  0  0  0  0
 11 14  2  0  0  0  0
 12 28  1  0  0  0  0
 13 25  1  0  0  0  0
 14 26  1  0  0  0  0
 15 32  2  0  0  0  0
 16 33  1  0  0  0  0
 17 19  1  0  0  0  0
 17 32  1  0  0  0  0
 18 27  1  0  0  0  0
 18 33  1  0  0  0  0
 19 35  1  0  0  0  0
 19 36  2  0  0  0  0
 20 23  1  0  0  0  0
 20 24  1  0  0  0  0
 21 24  1  0  0  0  0
 21 34  1  0  0  0  0
 22 23  1  0  0  0  0
 22 37  1  0  0  0  0
 23 34  1  0  0  0  0
 24 37  1  0  0  0  0
 28 34  1  0  0  0  0
 29 30  1  0  0  0  0
 29 35  1  0  0  0  0
 30 38  1  0  0  0  0
 31 33  1  0  0  0  0
  1 39  1  0  0  0  0
  2 40  1  0  0  0  0
  3 41  1  0  0  0  0
  4 42  1  0  0  0  0
  5 43  1  0  0  0  0
  6 44  1  0  0  0  0
  7 45  1  0  0  0  0
  8 46  1  0  0  0  0
 20 47  1  0  0  0  0
 20 48  1  0  0  0  0
 21 49  1  0  0  0  0
 21 50  1  0  0  0  0
 22 51  1  0  0  0  0
 22 52  1  0  0  0  0
 23 53  1  0  0  0  0
 24 54  1  0  0  0  0
 25 55  1  0  0  0  0
 25 56  1  0  0  0  0
 25 57  1  0  0  0  0
 26 58  1  0  0  0  0
 26 59  1  0  0  0  0
 26 60  1  0  0  0  0
 27 61  1  0  0  0  0
 27 62  1  0  0  0  0
 27 63  1  0  0  0  0
 28 64  1  0  0  0  0
 28 65  1  0  0  0  0
 29 66  1  0  0  0  0
 29 67  1  0  0  0  0
 30 68  1  0  0  0  0
 30 69  1  0  0  0  0
 35 70  1  0  0  0  0
 38 71  1  0  0  0  0
M  END
> <SMILES>
Cc1cc2nc(cc(c2c(c1-c1ccc(cc1)CN1C[C@H]2C[C@@H]1CO2)C)-n1nccc1C)C(=O)NCCO

> <FORMATTED_ID>
H3D-008360

> <MOLFORMULA>
C30H33N5O3

> <Exact Mass>
511.26

> <XLogP>
3.24

> <TPSA_NOPS>
92.5

> <s_m_source_file>
ligprep_h3d.sdf

> <i_m_source_file_index>
1216

> <i_lp_mmshare_version>
55123

> <i_f3d_flags>
0

> <s_epik_input>
TzFbQ0gyXVtDSF0oW0NIMl0yKU4oW0NIMl1bQ0hdMTIpW0NIMl1jKFtjSF1bY0hdMylbY0hdW2NIXWMzLWMoYyhbQ0gzXSlbY0hdNCljKFtDSDNdKWMoYzQ1KWMoLW42bltjSF1bY0hdYzZbQ0gzXSlbY0hdYyhuNSlDKD1PKVtOSF1bQ0gyXVtDSDJdW09IXQ==

> <s_epik_cmdline>
J2VwaWtfcHl0aG9uJywgJy1waHQnLCAnMC41JywgJy1waCcsICc3LjUnLCAnLXRuJywgJzgnLCAnLW1hJywgJzUwMCcsICctaW1hZScsICc8aW5maWxlLm1hZT4nLCAnLW9tYWUnLCAnPG91dGZpbGUubWFlPic=

> <r_lp_tautomer_probability>
1

> <r_epik_Ionization_Penalty>
0.10556

> <r_epik_Ionization_Penalty_Charging>
0

> <r_epik_Ionization_Penalty_Neutral>
0.10556

> <r_epik_State_Penalty>
0.095414

> <r_epik_Charging_Adjusted_Penalty>
0.095414

> <i_epik_Tot_Q>
0

> <i_epik_Tot_abs_Q>
0

> <s_lp_Force_Field>
S-OPLS

> <r_lp_Energy>
75.9302

> <b_lp_Chiralities_Consistent>
1

> <s_lp_Variant>
ligprep_h3d.sdf:1216-1

> <ROCS_ShapeQuery>
_7L13

> <ROCS_TanimotoCombo>
0.683 

> <ROCS_ShapeTanimoto>
0.602 

> <ROCS_ColorTanimoto>
0.081 

> <ROCS_RefTversky>
0.777 

> <ROCS_RefColorTversky>
0.218 

> <ROCS_RefTverskyCombo>
0.995 

> <ROCS_FitTversky>
0.727 

> <ROCS_FitColorTversky>
0.115 

> <ROCS_FitTverskyCombo>
0.842 

> <ROCS_ColorScore>
-2.066

> <ROCS_Overlap>
1294.780

> <ROCS_Rank>
407                 

$$$$
ligprep_h3d.sdf:2920_1324
  -OEChem-08212117123D

 66 70  0     0  0  0  0  0  0999 V2000
  -16.8266   -3.9234  -25.5327 C   0  0  0  0  0  0  0  0  0  0  0  0
  -18.4331   -5.7105  -25.7824 C   0  0  0  0  0  0  0  0  0  0  0  0
  -15.9624   -4.7931  -24.8677 C   0  0  0  0  0  0  0  0  0  0  0  0
  -17.5688   -6.5803  -25.1175 C   0  0  0  0  0  0  0  0  0  0  0  0
  -18.1333   -6.5704  -37.1521 C   0  0  0  0  0  0  0  0  0  0  0  0
  -18.8067   -7.6225  -36.5314 C   0  0  0  0  0  0  0  0  0  0  0  0
  -19.5845   -4.9880  -36.0444 C   0  0  0  0  0  0  0  0  0  0  0  0
  -23.5106   -4.8511  -25.5740 C   0  0  0  0  0  0  0  0  0  0  0  0
  -21.2105   -3.5955  -24.4690 C   0  0  0  0  0  0  0  0  0  0  0  0
  -18.0620   -4.3820  -25.9900 C   0  0  0  0  0  0  0  0  0  0  0  0
  -16.3334   -6.1216  -24.6601 C   0  0  0  0  0  0  0  0  0  0  0  0
  -20.2580   -6.0401  -35.4238 C   0  0  0  0  0  0  0  0  0  0  0  0
  -22.3625   -4.6526  -26.3594 C   0  0  0  0  0  0  0  0  0  0  0  0
  -21.2511   -4.0353  -25.7924 C   0  0  0  0  0  0  0  0  0  0  0  0
  -18.5221   -5.2531  -36.9085 C   0  0  0  0  0  0  0  0  0  0  0  0
  -19.8691   -7.3573  -35.6674 C   0  0  0  0  0  0  0  0  0  0  0  0
  -23.4926   -4.4174  -24.2424 C   0  0  0  0  0  0  0  0  0  0  0  0
  -22.3619   -3.8009  -23.7018 C   0  0  0  0  0  0  0  0  0  0  0  0
  -20.8951   -4.5739  -27.9086 C   0  0  0  0  0  0  0  0  0  0  0  0
  -19.5394   -5.6903  -31.2146 C   0  0  0  0  0  0  0  0  0  0  0  0
  -21.6100   -4.2895  -31.0185 C   0  0  0  0  0  0  0  0  0  0  0  0
  -20.0764   -6.2239  -32.5438 C   0  0  0  0  0  0  0  0  0  0  0  0
  -22.0780   -4.8684  -32.3547 C   0  0  0  0  0  0  0  0  0  0  0  0
  -20.6778   -5.2574  -30.2902 C   0  0  0  0  0  0  0  0  0  0  0  0
  -16.7875   -4.5698  -38.3850 C   0  0  0  0  0  0  0  0  0  0  0  0
  -18.9948   -3.4445  -26.7079 C   0  0  0  0  0  0  0  0  0  0  0  0
  -21.3994   -5.7362  -34.4969 C   0  0  0  0  0  0  0  0  0  0  0  0
  -15.4081   -7.0514  -23.9505 C   0  0  0  0  0  0  0  0  0  0  0  0
  -22.1227   -4.9801  -27.6742 N   0  0  0  0  0  0  0  0  0  0  0  0
  -20.3279   -3.9982  -26.8058 N   0  0  0  0  0  0  0  0  0  0  0  0
  -20.9355   -5.2316  -33.2046 N   0  0  0  0  0  0  0  0  0  0  0  0
  -20.1665   -4.6650  -29.0794 N   0  0  0  0  0  0  0  0  0  0  0  0
  -20.5169   -8.3968  -35.0705 O   0  0  0  0  0  0  0  0  0  0  0  0
  -17.8644   -4.2269  -37.5140 O   0  0  0  0  0  0  0  0  0  0  0  0
  -24.5772   -4.5983  -23.4760 F   0  0  0  0  0  0  0  0  0  0  0  0
  -22.3793   -3.3987  -22.4230 F   0  0  0  0  0  0  0  0  0  0  0  0
  -14.2364   -6.4667  -23.5616 F   0  0  0  0  0  0  0  0  0  0  0  0
  -15.9368   -7.5830  -22.8087 F   0  0  0  0  0  0  0  0  0  0  0  0
  -15.0466   -8.1201  -24.7186 F   0  0  0  0  0  0  0  0  0  0  0  0
  -16.5293   -2.8898  -25.6898 H   0  0  0  0  0  0  0  0  0  0  0  0
  -19.3932   -6.0766  -26.1367 H   0  0  0  0  0  0  0  0  0  0  0  0
  -15.0012   -4.4273  -24.5166 H   0  0  0  0  0  0  0  0  0  0  0  0
  -17.8656   -7.6139  -24.9598 H   0  0  0  0  0  0  0  0  0  0  0  0
  -17.3061   -6.7829  -37.8237 H   0  0  0  0  0  0  0  0  0  0  0  0
  -18.4970   -8.6463  -36.7238 H   0  0  0  0  0  0  0  0  0  0  0  0
  -19.8856   -3.9600  -35.8574 H   0  0  0  0  0  0  0  0  0  0  0  0
  -24.3940   -5.3293  -25.9848 H   0  0  0  0  0  0  0  0  0  0  0  0
  -20.3337   -3.1167  -24.0479 H   0  0  0  0  0  0  0  0  0  0  0  0
  -18.9611   -6.4780  -30.7205 H   0  0  0  0  0  0  0  0  0  0  0  0
  -18.8509   -4.8602  -31.3944 H   0  0  0  0  0  0  0  0  0  0  0  0
  -21.1181   -3.3262  -31.1792 H   0  0  0  0  0  0  0  0  0  0  0  0
  -22.4837   -4.0957  -30.3873 H   0  0  0  0  0  0  0  0  0  0  0  0
  -19.2428   -6.5173  -33.1955 H   0  0  0  0  0  0  0  0  0  0  0  0
  -20.6562   -7.1315  -32.3351 H   0  0  0  0  0  0  0  0  0  0  0  0
  -22.6789   -5.7621  -32.1449 H   0  0  0  0  0  0  0  0  0  0  0  0
  -22.7349   -4.1520  -32.8655 H   0  0  0  0  0  0  0  0  0  0  0  0
  -21.2594   -6.1564  -30.0000 H   0  0  0  0  0  0  0  0  0  0  0  0
  -16.3503   -3.6589  -38.8011 H   0  0  0  0  0  0  0  0  0  0  0  0
  -17.1583   -5.2094  -39.1899 H   0  0  0  0  0  0  0  0  0  0  0  0
  -16.0271   -5.1088  -37.8150 H   0  0  0  0  0  0  0  0  0  0  0  0
  -19.0613   -2.4793  -26.1911 H   0  0  0  0  0  0  0  0  0  0  0  0
  -18.6376   -3.2300  -27.7225 H   0  0  0  0  0  0  0  0  0  0  0  0
  -22.0624   -4.9822  -34.9351 H   0  0  0  0  0  0  0  0  0  0  0  0
  -22.0027   -6.6307  -34.3100 H   0  0  0  0  0  0  0  0  0  0  0  0
  -19.2239   -4.3003  -29.0954 H   0  0  0  0  0  0  0  0  0  0  0  0
  -20.1238   -9.2395  -35.3468 H   0  0  0  0  0  0  0  0  0  0  0  0
  1  3  1  0  0  0  0
  1 10  2  0  0  0  0
  2  4  2  0  0  0  0
  2 10  1  0  0  0  0
  3 11  2  0  0  0  0
  4 11  1  0  0  0  0
  5  6  1  0  0  0  0
  5 15  2  0  0  0  0
  6 16  2  0  0  0  0
  7 12  2  0  0  0  0
  7 15  1  0  0  0  0
  8 13  2  0  0  0  0
  8 17  1  0  0  0  0
  9 14  2  0  0  0  0
  9 18  1  0  0  0  0
 10 26  1  0  0  0  0
 11 28  1  0  0  0  0
 12 16  1  0  0  0  0
 12 27  1  0  0  0  0
 13 14  1  0  0  0  0
 13 29  1  0  0  0  0
 14 30  1  0  0  0  0
 15 34  1  0  0  0  0
 16 33  1  0  0  0  0
 17 18  2  0  0  0  0
 17 35  1  0  0  0  0
 18 36  1  0  0  0  0
 19 29  2  0  0  0  0
 19 30  1  0  0  0  0
 19 32  1  0  0  0  0
 20 22  1  0  0  0  0
 20 24  1  0  0  0  0
 21 23  1  0  0  0  0
 21 24  1  0  0  0  0
 22 31  1  0  0  0  0
 23 31  1  0  0  0  0
 24 32  1  0  0  0  0
 25 34  1  0  0  0  0
 26 30  1  0  0  0  0
 27 31  1  0  0  0  0
 28 37  1  0  0  0  0
 28 38  1  0  0  0  0
 28 39  1  0  0  0  0
  1 40  1  0  0  0  0
  2 41  1  0  0  0  0
  3 42  1  0  0  0  0
  4 43  1  0  0  0  0
  5 44  1  0  0  0  0
  6 45  1  0  0  0  0
  7 46  1  0  0  0  0
  8 47  1  0  0  0  0
  9 48  1  0  0  0  0
 20 49  1  0  0  0  0
 20 50  1  0  0  0  0
 21 51  1  0  0  0  0
 21 52  1  0  0  0  0
 22 53  1  0  0  0  0
 22 54  1  0  0  0  0
 23 55  1  0  0  0  0
 23 56  1  0  0  0  0
 24 57  1  0  0  0  0
 25 58  1  0  0  0  0
 25 59  1  0  0  0  0
 25 60  1  0  0  0  0
 26 61  1  0  0  0  0
 26 62  1  0  0  0  0
 27 63  1  0  0  0  0
 27 64  1  0  0  0  0
 32 65  1  0  0  0  0
 33 66  1  0  0  0  0
M  END
> <SMILES>
COc1ccc(c(c1)CN1CCC(CC1)Nc1nc2cc(c(cc2n1Cc1ccc(cc1)C(F)(F)F)F)F)O

> <FORMATTED_ID>
H3D-012702

> <MOLFORMULA>
C28H27F5N4O2

> <Exact Mass>
546.21

> <XLogP>
7.49

> <TPSA_NOPS>
62.5

> <s_m_source_file>
ligprep_h3d.sdf

> <i_m_source_file_index>
2920

> <i_lp_mmshare_version>
55123

> <i_f3d_flags>
0

> <s_epik_input>
W0NIM11PYzFbY0hdW2NIXWMoW09IXSljKFtjSF0xKVtDSDJdTjJbQ0gyXVtDSDJdW0NIXShbQ0gyXVtDSDJdMilbTkhdYyhuMyluKGMoYzM0KVtjSF1jKEYpYyhGKVtjSF00KVtDSDJdYzVbY0hdW2NIXWMoQyhGKShGKUYpW2NIXVtjSF01

> <s_epik_cmdline>
J2VwaWtfcHl0aG9uJywgJy1waHQnLCAnMC41JywgJy1waCcsICc3LjUnLCAnLXRuJywgJzgnLCAnLW1hJywgJzUwMCcsICctaW1hZScsICc8aW5maWxlLm1hZT4nLCAnLW9tYWUnLCAnPG91dGZpbGUubWFlPic=

> <r_lp_tautomer_probability>
1

> <r_epik_Ionization_Penalty>
0.383183

> <r_epik_Ionization_Penalty_Charging>
0

> <r_epik_Ionization_Penalty_Neutral>
0.383183

> <r_epik_State_Penalty>
0.3427

> <r_epik_Charging_Adjusted_Penalty>
0.3427

> <i_epik_Tot_Q>
0

> <i_epik_Tot_abs_Q>
0

> <s_lp_Force_Field>
S-OPLS

> <r_lp_Energy>
35.9186

> <b_lp_Chiralities_Consistent>
1

> <s_lp_Variant>
ligprep_h3d.sdf:2920-1

> <ROCS_ShapeQuery>
_7L13

> <ROCS_TanimotoCombo>
0.651 

> <ROCS_ShapeTanimoto>
0.597 

> <ROCS_ColorTanimoto>
0.054 

> <ROCS_RefTversky>
0.777 

> <ROCS_RefColorTversky>
0.112 

> <ROCS_RefTverskyCombo>
0.888 

> <ROCS_FitTversky>
0.721 

> <ROCS_FitColorTversky>
0.093 

> <ROCS_FitTverskyCombo>
0.814 

> <ROCS_ColorScore>
-1.017

> <ROCS_Overlap>
1295.410

> <ROCS_Rank>
408                 

$$$$
ligprep_h3d.sdf:5550_1015
  -OEChem-08212117123D

 56 60  0     0  0  0  0  0  0999 V2000
  -18.0364   -6.2976  -25.9350 C   0  0  0  0  0  0  0  0  0  0  0  0
  -16.3650   -4.5612  -26.1031 C   0  0  0  0  0  0  0  0  0  0  0  0
  -17.1584   -7.0691  -25.1738 C   0  0  0  0  0  0  0  0  0  0  0  0
  -15.4870   -5.3326  -25.3418 C   0  0  0  0  0  0  0  0  0  0  0  0
  -24.9064   -4.5614  -25.4516 C   0  0  0  0  0  0  0  0  0  0  0  0
  -24.2503   -4.8161  -26.6603 C   0  0  0  0  0  0  0  0  0  0  0  0
  -20.8386   -4.6249  -33.0342 C   0  0  0  0  0  0  0  0  0  0  0  0
  -20.1895   -4.5520  -34.2690 C   0  0  0  0  0  0  0  0  0  0  0  0
  -22.8072   -3.9912  -24.4210 C   0  0  0  0  0  0  0  0  0  0  0  0
  -20.9135   -7.0548  -33.1689 C   0  0  0  0  0  0  0  0  0  0  0  0
  -22.1497   -4.2465  -25.6321 C   0  0  0  0  0  0  0  0  0  0  0  0
  -17.6397   -5.0437  -26.3997 C   0  0  0  0  0  0  0  0  0  0  0  0
  -15.8837   -6.5866  -24.8771 C   0  0  0  0  0  0  0  0  0  0  0  0
  -24.1866   -4.1500  -24.3351 C   0  0  0  0  0  0  0  0  0  0  0  0
  -22.8573   -4.6658  -26.7829 C   0  0  0  0  0  0  0  0  0  0  0  0
  -21.1984   -5.8692  -32.4872 C   0  0  0  0  0  0  0  0  0  0  0  0
  -19.9197   -5.7373  -34.9217 C   0  0  0  0  0  0  0  0  0  0  0  0
  -20.2719   -6.9552  -34.3863 C   0  0  0  0  0  0  0  0  0  0  0  0
  -20.7811   -4.7396  -28.0146 C   0  0  0  0  0  0  0  0  0  0  0  0
  -20.6743   -4.0682  -25.6940 C   0  0  0  0  0  0  0  0  0  0  0  0
  -20.0165   -4.3489  -26.9916 C   0  0  0  0  0  0  0  0  0  0  0  0
  -18.5751   -4.2201  -27.2110 C   0  0  0  0  0  0  0  0  0  0  0  0
  -22.2151   -4.8485  -30.4211 C   0  0  0  0  0  0  0  0  0  0  0  0
  -19.2986   -7.2954  -36.2886 C   0  0  0  0  0  0  0  0  0  0  0  0
  -14.9456   -7.4115  -24.0621 C   0  0  0  0  0  0  0  0  0  0  0  0
  -24.8925   -3.8796  -23.0498 C   0  0  0  0  0  0  0  0  0  0  0  0
  -22.9008   -5.3449  -29.1629 C   0  0  0  0  0  0  0  0  0  0  0  0
  -22.1528   -4.9124  -27.9850 N   0  0  0  0  0  0  0  0  0  0  0  0
  -21.8548   -5.9196  -31.2344 N   0  0  0  0  0  0  0  0  0  0  0  0
  -20.0306   -3.7068  -24.7169 O   0  0  0  0  0  0  0  0  0  0  0  0
  -18.1351   -3.4259  -28.0427 O   0  0  0  0  0  0  0  0  0  0  0  0
  -22.0397   -3.6546  -30.6425 O   0  0  0  0  0  0  0  0  0  0  0  0
  -19.2977   -5.8623  -36.1256 O   0  0  0  0  0  0  0  0  0  0  0  0
  -19.9148   -7.9951  -35.1881 O   0  0  0  0  0  0  0  0  0  0  0  0
  -19.0275   -6.6827  -26.1605 H   0  0  0  0  0  0  0  0  0  0  0  0
  -16.0451   -3.5857  -26.4599 H   0  0  0  0  0  0  0  0  0  0  0  0
  -17.4759   -8.0447  -24.8156 H   0  0  0  0  0  0  0  0  0  0  0  0
  -14.4958   -4.9487  -25.1149 H   0  0  0  0  0  0  0  0  0  0  0  0
  -25.9845   -4.6897  -25.3948 H   0  0  0  0  0  0  0  0  0  0  0  0
  -24.8611   -5.1365  -27.5001 H   0  0  0  0  0  0  0  0  0  0  0  0
  -21.0627   -3.7053  -32.4985 H   0  0  0  0  0  0  0  0  0  0  0  0
  -19.9097   -3.5949  -34.6943 H   0  0  0  0  0  0  0  0  0  0  0  0
  -22.2530   -3.6692  -23.5427 H   0  0  0  0  0  0  0  0  0  0  0  0
  -21.1852   -8.0222  -32.7595 H   0  0  0  0  0  0  0  0  0  0  0  0
  -20.3484   -4.9576  -28.9862 H   0  0  0  0  0  0  0  0  0  0  0  0
  -19.8402   -7.5434  -37.2092 H   0  0  0  0  0  0  0  0  0  0  0  0
  -18.2624   -7.6385  -36.3870 H   0  0  0  0  0  0  0  0  0  0  0  0
  -14.3415   -8.0566  -24.7116 H   0  0  0  0  0  0  0  0  0  0  0  0
  -14.2688   -6.7796  -23.4725 H   0  0  0  0  0  0  0  0  0  0  0  0
  -15.4891   -8.0458  -23.3497 H   0  0  0  0  0  0  0  0  0  0  0  0
  -24.9436   -4.7917  -22.4425 H   0  0  0  0  0  0  0  0  0  0  0  0
  -24.3786   -3.1030  -22.4684 H   0  0  0  0  0  0  0  0  0  0  0  0
  -25.9153   -3.5204  -23.2246 H   0  0  0  0  0  0  0  0  0  0  0  0
  -22.9575   -6.4378  -29.1792 H   0  0  0  0  0  0  0  0  0  0  0  0
  -23.9167   -4.9391  -29.1275 H   0  0  0  0  0  0  0  0  0  0  0  0
  -22.0843   -6.8537  -30.9017 H   0  0  0  0  0  0  0  0  0  0  0  0
  1  3  1  0  0  0  0
  1 12  2  0  0  0  0
  2  4  2  0  0  0  0
  2 12  1  0  0  0  0
  3 13  2  0  0  0  0
  4 13  1  0  0  0  0
  5  6  1  0  0  0  0
  5 14  2  0  0  0  0
  6 15  2  0  0  0  0
  7  8  1  0  0  0  0
  7 16  2  0  0  0  0
  8 17  2  0  0  0  0
  9 11  2  0  0  0  0
  9 14  1  0  0  0  0
 10 16  1  0  0  0  0
 10 18  2  0  0  0  0
 11 15  1  0  0  0  0
 11 20  1  0  0  0  0
 12 22  1  0  0  0  0
 13 25  1  0  0  0  0
 14 26  1  0  0  0  0
 15 28  1  0  0  0  0
 16 29  1  0  0  0  0
 17 18  1  0  0  0  0
 17 33  1  0  0  0  0
 18 34  1  0  0  0  0
 19 21  2  0  0  0  0
 19 28  1  0  0  0  0
 20 21  1  0  0  0  0
 20 30  2  0  0  0  0
 21 22  1  0  0  0  0
 22 31  2  0  0  0  0
 23 27  1  0  0  0  0
 23 29  1  0  0  0  0
 23 32  2  0  0  0  0
 24 33  1  0  0  0  0
 24 34  1  0  0  0  0
 27 28  1  0  0  0  0
  1 35  1  0  0  0  0
  2 36  1  0  0  0  0
  3 37  1  0  0  0  0
  4 38  1  0  0  0  0
  5 39  1  0  0  0  0
  6 40  1  0  0  0  0
  7 41  1  0  0  0  0
  8 42  1  0  0  0  0
  9 43  1  0  0  0  0
 10 44  1  0  0  0  0
 19 45  1  0  0  0  0
 24 46  1  0  0  0  0
 24 47  1  0  0  0  0
 25 48  1  0  0  0  0
 25 49  1  0  0  0  0
 25 50  1  0  0  0  0
 26 51  1  0  0  0  0
 26 52  1  0  0  0  0
 26 53  1  0  0  0  0
 27 54  1  0  0  0  0
 27 55  1  0  0  0  0
 29 56  1  0  0  0  0
M  END
> <SMILES>
Cc1ccc(cc1)C(=O)C1=CN(CC(=O)Nc2ccc3c(c2)OCO3)c2ccc(cc2C1=O)C

> <FORMATTED_ID>
H3D-014140

> <MOLFORMULA>
C27H22N2O5

> <Exact Mass>
454.15

> <XLogP>
4.02

> <TPSA_NOPS>
84.9

> <s_m_source_file>
ligprep_h3d.sdf

> <i_m_source_file_index>
5550

> <i_lp_mmshare_version>
55123

> <i_f3d_flags>
0

> <s_epik_input>
W0NIM11jMVtjSF1bY0hdYyhbY0hdW2NIXTEpQyg9TyljKGMoPU8pYyhjMjMpW2NIXWMoW0NIM10pW2NIXVtjSF0zKVtjSF1uMltDSDJdQyg9TylbTkhdYyhbY0hdW2NIXTQpW2NIXWMoYzQ1KU9bQ0gyXU81

> <s_epik_cmdline>
J2VwaWtfcHl0aG9uJywgJy1waHQnLCAnMC41JywgJy1waCcsICc3LjUnLCAnLXRuJywgJzgnLCAnLW1hJywgJzUwMCcsICctaW1hZScsICc8aW5maWxlLm1hZT4nLCAnLW9tYWUnLCAnPG91dGZpbGUubWFlPic=

> <r_lp_tautomer_probability>
1

> <r_epik_Ionization_Penalty>
3.70918e-06

> <r_epik_Ionization_Penalty_Charging>
2.38781e-07

> <r_epik_Ionization_Penalty_Neutral>
3.4704e-06

> <r_epik_State_Penalty>
-0

> <r_epik_Charging_Adjusted_Penalty>
2.38781e-07

> <i_epik_Tot_Q>
0

> <i_epik_Tot_abs_Q>
0

> <s_epik_Chemistry_Notes>
This compound contains an acetal/aminal-like group ( X-CH(R)-Y where X, Y are N, S, or O) that may be acid/base labile, releasing an aldehyde.

> <s_lp_Force_Field>
S-OPLS

> <r_lp_Energy>
55.2151

> <b_lp_Chiralities_Consistent>
1

> <s_lp_Variant>
ligprep_h3d.sdf:5550-1

> <ROCS_ShapeQuery>
_7L13

> <ROCS_TanimotoCombo>
0.713 

> <ROCS_ShapeTanimoto>
0.656 

> <ROCS_ColorTanimoto>
0.056 

> <ROCS_RefTversky>
0.777 

> <ROCS_RefColorTversky>
0.118 

> <ROCS_RefTverskyCombo>
0.894 

> <ROCS_FitTversky>
0.809 

> <ROCS_FitColorTversky>
0.098 

> <ROCS_FitTverskyCombo>
0.907 

> <ROCS_ColorScore>
-1.070

> <ROCS_Overlap>
1286.950

> <ROCS_Rank>
409                 

$$$$
ligprep_h3d.sdf:1055_13
  -OEChem-08212117123D

 59 65  0     1  0  0  0  0  0999 V2000
  -20.9795   -5.1536  -29.5022 C   0  0  0  0  0  0  0  0  0  0  0  0
  -21.7448   -4.3887  -30.3846 C   0  0  0  0  0  0  0  0  0  0  0  0
  -21.0924   -4.9074  -28.1120 C   0  0  0  0  0  0  0  0  0  0  0  0
  -21.9813   -3.9439  -27.5803 C   0  0  0  0  0  0  0  0  0  0  0  0
  -22.5827   -3.4281  -29.8626 C   0  0  0  0  0  0  0  0  0  0  0  0
  -22.7298   -3.1708  -28.4994 C   0  0  0  0  0  0  0  0  0  0  0  0
  -21.9377   -4.2827  -31.7746 C   0  0  0  0  0  0  0  0  0  0  0  0
  -18.9175   -3.8651  -26.1958 C   0  0  0  0  0  0  0  0  0  0  0  0
  -19.2883   -6.1239  -25.0099 C   0  0  0  0  0  0  0  0  0  0  0  0
  -17.0187   -5.3915  -25.7102 C   0  0  0  0  0  0  0  0  0  0  0  0
  -20.8631   -6.3596  -32.5229 C   0  0  0  0  0  0  0  0  0  0  0  0
  -20.2373   -5.7366  -27.1914 C   0  0  0  0  0  0  0  0  0  0  0  0
  -23.0349   -2.7807  -25.6515 C   0  0  0  0  0  0  0  0  0  0  0  0
  -19.6997   -3.8012  -34.1534 C   0  0  0  0  0  0  0  0  0  0  0  0
  -19.3678   -5.6252  -35.5185 C   0  0  0  0  0  0  0  0  0  0  0  0
  -20.9812   -4.6265  -34.0576 C   0  0  1  0  0  0  0  0  0  0  0  0
  -21.2210   -4.4823  -25.2317 C   0  0  2  0  0  0  0  0  0  0  0  0
  -20.6395   -5.9158  -34.7601 C   0  0  2  0  0  0  0  0  0  0  0  0
  -23.4123   -3.0843  -24.1989 C   0  0  1  0  0  0  0  0  0  0  0  0
  -21.0455   -3.5468  -24.0001 C   0  0  2  0  0  0  0  0  0  0  0  0
  -19.8976   -5.0040  -25.8694 C   0  0  0  0  0  0  0  0  0  0  0  0
  -24.4155   -4.2300  -24.0789 C   0  0  0  0  0  0  0  0  0  0  0  0
  -20.0998   -4.0398  -22.9115 C   0  0  0  0  0  0  0  0  0  0  0  0
  -22.8221   -3.3324  -32.0925 N   0  0  0  0  0  0  0  0  0  0  0  0
  -17.5795   -4.2258  -26.2120 N   0  0  0  0  0  0  0  0  0  0  0  0
  -17.9128   -6.2651  -25.1079 N   0  0  0  0  0  0  0  0  0  0  0  0
  -22.0918   -3.7642  -26.1994 N   0  0  3  0  0  0  0  0  0  0  0  0
  -21.2964   -5.0557  -32.7223 N   0  0  0  0  0  0  0  0  0  0  0  0
  -19.2799   -2.7254  -26.4875 O   0  0  0  0  0  0  0  0  0  0  0  0
  -19.9724   -6.9046  -24.3467 O   0  0  0  0  0  0  0  0  0  0  0  0
  -15.8082   -5.6161  -25.7594 O   0  0  0  0  0  0  0  0  0  0  0  0
  -20.8864   -7.0101  -31.4862 O   0  0  0  0  0  0  0  0  0  0  0  0
  -23.2275   -2.7910  -30.8781 O   0  0  0  0  0  0  0  0  0  0  0  0
  -20.3684   -6.8518  -33.7067 O   0  0  0  0  0  0  0  0  0  0  0  0
  -18.6916   -4.6320  -34.7399 O   0  0  0  0  0  0  0  0  0  0  0  0
  -22.3060   -3.3588  -23.3448 O   0  0  0  0  0  0  0  0  0  0  0  0
  -23.4971   -2.1351  -28.1389 F   0  0  0  0  0  0  0  0  0  0  0  0
  -20.3031   -5.9169  -29.8761 H   0  0  0  0  0  0  0  0  0  0  0  0
  -20.7798   -6.6709  -26.9911 H   0  0  0  0  0  0  0  0  0  0  0  0
  -19.3092   -6.0168  -27.7082 H   0  0  0  0  0  0  0  0  0  0  0  0
  -23.9457   -2.8111  -26.2848 H   0  0  0  0  0  0  0  0  0  0  0  0
  -22.7071   -1.7306  -25.6950 H   0  0  0  0  0  0  0  0  0  0  0  0
  -19.8515   -2.9399  -34.8137 H   0  0  0  0  0  0  0  0  0  0  0  0
  -19.3420   -3.4228  -33.1908 H   0  0  0  0  0  0  0  0  0  0  0  0
  -18.7157   -6.4961  -35.6266 H   0  0  0  0  0  0  0  0  0  0  0  0
  -19.5773   -5.1965  -36.5042 H   0  0  0  0  0  0  0  0  0  0  0  0
  -21.8337   -4.0976  -34.4960 H   0  0  0  0  0  0  0  0  0  0  0  0
  -21.8130   -5.3506  -24.9030 H   0  0  0  0  0  0  0  0  0  0  0  0
  -21.4359   -6.3259  -35.3878 H   0  0  0  0  0  0  0  0  0  0  0  0
  -23.9457   -2.1668  -23.7681 H   0  0  0  0  0  0  0  0  0  0  0  0
  -20.6844   -2.5501  -24.3140 H   0  0  0  0  0  0  0  0  0  0  0  0
  -23.9806   -5.1493  -24.4713 H   0  0  0  0  0  0  0  0  0  0  0  0
  -25.3178   -3.9963  -24.6442 H   0  0  0  0  0  0  0  0  0  0  0  0
  -24.6830   -4.3835  -23.0333 H   0  0  0  0  0  0  0  0  0  0  0  0
  -20.4121   -5.0248  -22.5644 H   0  0  0  0  0  0  0  0  0  0  0  0
  -20.1089   -3.3486  -22.0688 H   0  0  0  0  0  0  0  0  0  0  0  0
  -19.0846   -4.1080  -23.3024 H   0  0  0  0  0  0  0  0  0  0  0  0
  -16.9384   -3.5635  -26.6383 H   0  0  0  0  0  0  0  0  0  0  0  0
  -17.5080   -7.0720  -24.6420 H   0  0  0  0  0  0  0  0  0  0  0  0
  1  2  2  0  0  0  0
  1  3  1  0  0  0  0
  2  5  1  0  0  0  0
  2  7  1  0  0  0  0
  3  4  2  0  0  0  0
  3 12  1  0  0  0  0
  4  6  1  0  0  0  0
  4 27  1  0  0  0  0
  5  6  2  0  0  0  0
  5 33  1  0  0  0  0
  6 37  1  0  0  0  0
  7 24  2  0  0  0  0
  7 28  1  0  0  0  0
  8 21  1  0  0  0  0
  8 25  1  0  0  0  0
  8 29  2  0  0  0  0
  9 21  1  0  0  0  0
  9 26  1  0  0  0  0
  9 30  2  0  0  0  0
 10 25  1  0  0  0  0
 10 26  1  0  0  0  0
 10 31  2  0  0  0  0
 11 28  1  0  0  0  0
 11 32  2  0  0  0  0
 11 34  1  0  0  0  0
 12 21  1  0  0  0  0
 13 19  1  0  0  0  0
 13 27  1  0  0  0  0
 14 16  1  0  0  0  0
 14 35  1  0  0  0  0
 15 18  1  0  0  0  0
 15 35  1  0  0  0  0
 16 18  1  0  0  0  0
 16 28  1  0  0  0  0
 17 20  1  0  0  0  0
 17 21  1  0  0  0  0
 17 27  1  0  0  0  0
 18 34  1  0  0  0  0
 19 22  1  0  0  0  0
 19 36  1  0  0  0  0
 20 23  1  0  0  0  0
 20 36  1  0  0  0  0
 24 33  1  0  0  0  0
  1 38  1  0  0  0  0
 12 39  1  0  0  0  0
 12 40  1  0  0  0  0
 13 41  1  0  0  0  0
 13 42  1  0  0  0  0
 14 43  1  0  0  0  0
 14 44  1  0  0  0  0
 15 45  1  0  0  0  0
 15 46  1  0  0  0  0
 16 47  1  0  0  0  0
 17 48  1  0  0  0  0
 18 49  1  0  0  0  0
 19 50  1  0  0  0  0
 20 51  1  0  0  0  0
 22 52  1  0  0  0  0
 22 53  1  0  0  0  0
 22 54  1  0  0  0  0
 23 55  1  0  0  0  0
 23 56  1  0  0  0  0
 23 57  1  0  0  0  0
 25 58  1  0  0  0  0
 26 59  1  0  0  0  0
M  END
> <SMILES>
C[C@@H]1CN2[C@H]([C@H](C)O1)C1(Cc3cc4c(noc4c(c32)F)N2[C@H]3COC[C@H]3OC2=O)C(=O)NC(=O)NC1=O

> <FORMATTED_ID>
H3D-006617

> <MOLFORMULA>
C23H22FN5O8

> <Exact Mass>
515.15

> <XLogP>
-0.12

> <TPSA_NOPS>
152.8

> <s_m_source_file>
ligprep_h3d.sdf

> <i_m_source_file_index>
1055

> <i_lp_mmshare_version>
55123

> <i_f3d_flags>
0

> <s_epik_input>
Tz1DMVtOSF1DKD1PKVtOSF1DKD1PKUMxMltDQEBIXTNOKFtDSDJdW0NAQEhdKFtDSDNdKU9bQ0BIXTNbQ0gzXSljNGMoW0NIMl0yKVtjSF1jNWMoYzRGKW9uYzVONkMoPU8pT1tDQEBIXShbQ0BASF02NylbQ0gyXU9bQ0gyXTc=

> <s_epik_cmdline>
J2VwaWtfcHl0aG9uJywgJy1waHQnLCAnMC41JywgJy1waCcsICc3LjUnLCAnLXRuJywgJzgnLCAnLW1hJywgJzUwMCcsICctaW1hZScsICc8aW5maWxlLm1hZT4nLCAnLW9tYWUnLCAnPG91dGZpbGUubWFlPic=

> <r_lp_tautomer_probability>
1

> <r_epik_Ionization_Penalty>
0.369125

> <r_epik_Ionization_Penalty_Charging>
0

> <r_epik_Ionization_Penalty_Neutral>
0.369125

> <r_epik_State_Penalty>
0.366447

> <r_epik_Charging_Adjusted_Penalty>
0.366447

> <i_epik_Tot_Q>
0

> <i_epik_Tot_abs_Q>
0

> <s_epik_Chemistry_Notes>
This compound has an ester and may undergo hydrolysis at high or low pH.

> <s_lp_Force_Field>
S-OPLS

> <r_lp_Energy>
26.9455

> <b_lp_Chiralities_Consistent>
1

> <s_lp_Variant>
ligprep_h3d.sdf:1055-1

> <ROCS_ShapeQuery>
_7L13

> <ROCS_TanimotoCombo>
0.725 

> <ROCS_ShapeTanimoto>
0.601 

> <ROCS_ColorTanimoto>
0.124 

> <ROCS_RefTversky>
0.777 

> <ROCS_RefColorTversky>
0.296 

> <ROCS_RefTverskyCombo>
1.073 

> <ROCS_FitTversky>
0.727 

> <ROCS_FitColorTversky>
0.175 

> <ROCS_FitTverskyCombo>
0.903 

> <ROCS_ColorScore>
-2.772

> <ROCS_Overlap>
1294.619

> <ROCS_Rank>
410                 

$$$$
ligprep_h3d.sdf:5083_1185
  -OEChem-08212117123D

 65 70  0     0  0  0  0  0  0999 V2000
  -19.3458   -6.1336  -34.7230 C   0  0  0  0  0  0  0  0  0  0  0  0
  -20.3448   -7.0217  -34.3245 C   0  0  0  0  0  0  0  0  0  0  0  0
  -19.2376   -4.8850  -34.1105 C   0  0  0  0  0  0  0  0  0  0  0  0
  -21.2358   -6.6612  -33.3137 C   0  0  0  0  0  0  0  0  0  0  0  0
  -20.1286   -4.5245  -33.0997 C   0  0  0  0  0  0  0  0  0  0  0  0
  -23.5579   -3.9480  -27.7236 C   0  0  0  0  0  0  0  0  0  0  0  0
  -20.8800   -4.4971  -28.4264 C   0  0  0  0  0  0  0  0  0  0  0  0
  -14.7541   -4.7925  -25.6851 C   0  0  0  0  0  0  0  0  0  0  0  0
  -15.2329   -6.0736  -25.8261 C   0  0  0  0  0  0  0  0  0  0  0  0
  -22.6208   -4.2657  -26.7482 C   0  0  0  0  0  0  0  0  0  0  0  0
  -21.1277   -5.4126  -32.7013 C   0  0  0  0  0  0  0  0  0  0  0  0
  -21.2981   -4.5360  -27.1042 C   0  0  0  0  0  0  0  0  0  0  0  0
  -23.1512   -3.9052  -29.0587 C   0  0  0  0  0  0  0  0  0  0  0  0
  -21.8212   -4.1780  -29.4072 C   0  0  0  0  0  0  0  0  0  0  0  0
  -16.8802   -4.5894  -25.7674 C   0  0  0  0  0  0  0  0  0  0  0  0
  -18.2537   -4.2081  -25.7979 C   0  0  0  0  0  0  0  0  0  0  0  0
  -18.8652   -6.5546  -26.0421 C   0  0  0  0  0  0  0  0  0  0  0  0
  -17.5742   -6.9220  -26.0149 C   0  0  0  0  0  0  0  0  0  0  0  0
  -19.2293   -5.1377  -25.9297 C   0  0  0  0  0  0  0  0  0  0  0  0
  -23.8473   -5.4762  -24.9061 C   0  0  0  0  0  0  0  0  0  0  0  0
  -23.2840   -3.0263  -24.6533 C   0  0  0  0  0  0  0  0  0  0  0  0
  -21.3958   -4.7508  -24.7739 C   0  0  0  0  0  0  0  0  0  0  0  0
  -24.1504   -5.5512  -23.4139 C   0  0  0  0  0  0  0  0  0  0  0  0
  -23.5909   -3.1189  -23.1629 C   0  0  0  0  0  0  0  0  0  0  0  0
  -22.8299   -4.3718  -25.2507 C   0  0  0  0  0  0  0  0  0  0  0  0
  -25.0485   -4.2500  -21.4875 C   0  0  0  0  0  0  0  0  0  0  0  0
  -24.2109   -2.2140  -30.3521 C   0  0  0  0  0  0  0  0  0  0  0  0
  -22.0861   -5.0240  -31.6140 C   0  0  0  0  0  0  0  0  0  0  0  0
  -15.7768   -3.8790  -25.6496 N   0  0  0  0  0  0  0  0  0  0  0  0
  -16.5969   -5.9448  -25.8788 N   0  0  0  0  0  0  0  0  0  0  0  0
  -20.5421   -4.8289  -25.9643 N   0  0  0  0  0  0  0  0  0  0  0  0
  -24.6157   -4.2009  -22.9272 N   0  3  0  0  0  0  0  0  0  0  0  0
  -24.0638   -3.5933  -30.0224 O   0  0  0  0  0  0  0  0  0  0  0  0
  -21.4318   -4.1334  -30.7135 O   0  0  0  0  0  0  0  0  0  0  0  0
  -18.6512   -6.4150  -35.5091 H   0  0  0  0  0  0  0  0  0  0  0  0
  -20.4285   -7.9943  -34.8005 H   0  0  0  0  0  0  0  0  0  0  0  0
  -18.4592   -4.1938  -34.4198 H   0  0  0  0  0  0  0  0  0  0  0  0
  -22.0112   -7.3595  -33.0098 H   0  0  0  0  0  0  0  0  0  0  0  0
  -20.0369   -3.5495  -32.6283 H   0  0  0  0  0  0  0  0  0  0  0  0
  -24.5885   -3.7363  -27.4560 H   0  0  0  0  0  0  0  0  0  0  0  0
  -19.8539   -4.7053  -28.7096 H   0  0  0  0  0  0  0  0  0  0  0  0
  -13.7224   -4.4820  -25.6076 H   0  0  0  0  0  0  0  0  0  0  0  0
  -14.7387   -7.0332  -25.8920 H   0  0  0  0  0  0  0  0  0  0  0  0
  -18.4963   -3.1534  -25.7122 H   0  0  0  0  0  0  0  0  0  0  0  0
  -19.6489   -7.2971  -26.1476 H   0  0  0  0  0  0  0  0  0  0  0  0
  -17.2554   -7.9542  -26.0947 H   0  0  0  0  0  0  0  0  0  0  0  0
  -23.4856   -6.4540  -25.2502 H   0  0  0  0  0  0  0  0  0  0  0  0
  -24.7896   -5.3011  -25.4427 H   0  0  0  0  0  0  0  0  0  0  0  0
  -24.1845   -2.6688  -25.1710 H   0  0  0  0  0  0  0  0  0  0  0  0
  -22.5202   -2.2549  -24.8171 H   0  0  0  0  0  0  0  0  0  0  0  0
  -20.9860   -4.0040  -24.0830 H   0  0  0  0  0  0  0  0  0  0  0  0
  -21.3817   -5.7166  -24.2542 H   0  0  0  0  0  0  0  0  0  0  0  0
  -24.9601   -6.2639  -23.2249 H   0  0  0  0  0  0  0  0  0  0  0  0
  -23.2740   -5.8351  -22.8222 H   0  0  0  0  0  0  0  0  0  0  0  0
  -22.7051   -3.3630  -22.5673 H   0  0  0  0  0  0  0  0  0  0  0  0
  -24.0201   -2.1779  -22.8031 H   0  0  0  0  0  0  0  0  0  0  0  0
  -24.1766   -4.5127  -20.8856 H   0  0  0  0  0  0  0  0  0  0  0  0
  -25.4279   -3.2623  -21.2188 H   0  0  0  0  0  0  0  0  0  0  0  0
  -25.8292   -5.0078  -21.3989 H   0  0  0  0  0  0  0  0  0  0  0  0
  -24.9681   -2.1039  -31.1323 H   0  0  0  0  0  0  0  0  0  0  0  0
  -23.2537   -1.8175  -30.6999 H   0  0  0  0  0  0  0  0  0  0  0  0
  -24.5272   -1.6672  -29.4607 H   0  0  0  0  0  0  0  0  0  0  0  0
  -22.9693   -4.5269  -32.0294 H   0  0  0  0  0  0  0  0  0  0  0  0
  -22.4255   -5.9074  -31.0624 H   0  0  0  0  0  0  0  0  0  0  0  0
  -25.4526   -3.9521  -23.4725 H   0  0  0  0  0  0  0  0  0  0  0  0
  1  2  2  0  0  0  0
  1  3  1  0  0  0  0
  2  4  1  0  0  0  0
  3  5  2  0  0  0  0
  4 11  2  0  0  0  0
  5 11  1  0  0  0  0
  6 10  1  0  0  0  0
  6 13  2  0  0  0  0
  7 12  1  0  0  0  0
  7 14  2  0  0  0  0
  8  9  2  0  0  0  0
  8 29  1  0  0  0  0
  9 30  1  0  0  0  0
 10 12  2  0  0  0  0
 10 25  1  0  0  0  0
 11 28  1  0  0  0  0
 12 31  1  0  0  0  0
 13 14  1  0  0  0  0
 13 33  1  0  0  0  0
 14 34  1  0  0  0  0
 15 16  1  0  0  0  0
 15 29  2  0  0  0  0
 15 30  1  0  0  0  0
 16 19  2  0  0  0  0
 17 18  2  0  0  0  0
 17 19  1  0  0  0  0
 18 30  1  0  0  0  0
 19 31  1  0  0  0  0
 20 23  1  0  0  0  0
 20 25  1  0  0  0  0
 21 24  1  0  0  0  0
 21 25  1  0  0  0  0
 22 25  1  0  0  0  0
 22 31  1  0  0  0  0
 23 32  1  0  0  0  0
 24 32  1  0  0  0  0
 26 32  1  0  0  0  0
 27 33  1  0  0  0  0
 28 34  1  0  0  0  0
  1 35  1  0  0  0  0
  2 36  1  0  0  0  0
  3 37  1  0  0  0  0
  4 38  1  0  0  0  0
  5 39  1  0  0  0  0
  6 40  1  0  0  0  0
  7 41  1  0  0  0  0
  8 42  1  0  0  0  0
  9 43  1  0  0  0  0
 16 44  1  0  0  0  0
 17 45  1  0  0  0  0
 18 46  1  0  0  0  0
 20 47  1  0  0  0  0
 20 48  1  0  0  0  0
 21 49  1  0  0  0  0
 21 50  1  0  0  0  0
 22 51  1  0  0  0  0
 22 52  1  0  0  0  0
 23 53  1  0  0  0  0
 23 54  1  0  0  0  0
 24 55  1  0  0  0  0
 24 56  1  0  0  0  0
 26 57  1  0  0  0  0
 26 58  1  0  0  0  0
 26 59  1  0  0  0  0
 27 60  1  0  0  0  0
 27 61  1  0  0  0  0
 27 62  1  0  0  0  0
 28 63  1  0  0  0  0
 28 64  1  0  0  0  0
 32 65  1  0  0  0  0
M  CHG  1  32   1
M  END
> <SMILES>
COc1cc2c(cc1OCc1ccccc1)N(CC12CCN(C)CC1)c1ccn2ccnc2c1

> <FORMATTED_ID>
H3D-012478

> <MOLFORMULA>
C28H30N4O2

> <Exact Mass>
454.24

> <XLogP>
6.07

> <TPSA_NOPS>
42.2

> <s_m_source_file>
ligprep_h3d.sdf

> <i_m_source_file_index>
5083

> <i_lp_mmshare_version>
55123

> <i_f3d_flags>
0

> <s_epik_input>
W2NIXTFbY0hdW2NIXVtjSF1bY0hdYzFbQ0gyXU9jKGMoW2NIXTIpT1tDSDNdKVtjSF1jKGMyQzM0W0NIMl1bQ0gyXU4oW0NIM10pW0NIMl1bQ0gyXTQpTihbQ0gyXTMpYyhbY0hdW2NIXTUpW2NIXWMobjU2KW5bY0hdW2NIXTY=

> <s_epik_cmdline>
J2VwaWtfcHl0aG9uJywgJy1waHQnLCAnMC41JywgJy1waCcsICc3LjUnLCAnLXRuJywgJzgnLCAnLW1hJywgJzUwMCcsICctaW1hZScsICc8aW5maWxlLm1hZT4nLCAnLW9tYWUnLCAnPG91dGZpbGUubWFlPic=

> <r_lp_tautomer_probability>
1

> <r_epik_Ionization_Penalty>
0.43281

> <r_epik_Ionization_Penalty_Charging>
0.43281

> <r_epik_Ionization_Penalty_Neutral>
3.07946e-10

> <r_epik_State_Penalty>
0.425628

> <r_epik_Charging_Adjusted_Penalty>
0.858438

> <i_epik_Tot_Q>
1

> <i_epik_Tot_abs_Q>
1

> <s_lp_Force_Field>
S-OPLS

> <r_lp_Energy>
71.598

> <b_lp_Chiralities_Consistent>
1

> <s_lp_Variant>
ligprep_h3d.sdf:5083-2

> <ROCS_ShapeQuery>
_7L13

> <ROCS_TanimotoCombo>
0.757 

> <ROCS_ShapeTanimoto>
0.656 

> <ROCS_ColorTanimoto>
0.101 

> <ROCS_RefTversky>
0.777 

> <ROCS_RefColorTversky>
0.202 

> <ROCS_RefTverskyCombo>
0.978 

> <ROCS_FitTversky>
0.809 

> <ROCS_FitColorTversky>
0.168 

> <ROCS_FitTverskyCombo>
0.976 

> <ROCS_ColorScore>
-1.836

> <ROCS_Overlap>
1286.689

> <ROCS_Rank>
411                 

$$$$
ligprep_h3d.sdf:444_70
  -OEChem-08212117123D

 57 62  0     1  0  0  0  0  0999 V2000
  -20.9139   -5.0926  -29.5226 C   0  0  0  0  0  0  0  0  0  0  0  0
  -21.7206   -4.3497  -30.3876 C   0  0  0  0  0  0  0  0  0  0  0  0
  -21.0451   -4.8918  -28.1273 C   0  0  0  0  0  0  0  0  0  0  0  0
  -21.9895   -3.9957  -27.5769 C   0  0  0  0  0  0  0  0  0  0  0  0
  -22.6165   -3.4550  -29.8442 C   0  0  0  0  0  0  0  0  0  0  0  0
  -22.7827   -3.2441  -28.4758 C   0  0  0  0  0  0  0  0  0  0  0  0
  -21.9151   -4.2174  -31.7752 C   0  0  0  0  0  0  0  0  0  0  0  0
  -19.1670   -6.0677  -25.0232 C   0  0  0  0  0  0  0  0  0  0  0  0
  -18.9371   -3.7879  -26.1648 C   0  0  0  0  0  0  0  0  0  0  0  0
  -17.0444   -5.2979  -25.6149 C   0  0  0  0  0  0  0  0  0  0  0  0
  -20.7140   -6.2094  -32.5797 C   0  0  0  0  0  0  0  0  0  0  0  0
  -20.1551   -5.6985  -27.2198 C   0  0  0  0  0  0  0  0  0  0  0  0
  -23.1962   -3.0377  -25.6307 C   0  0  0  0  0  0  0  0  0  0  0  0
  -20.6631   -5.7418  -34.8088 C   0  0  0  0  0  0  0  0  0  0  0  0
  -21.1935   -4.5174  -25.2323 C   0  0  2  0  0  0  0  0  0  0  0  0
  -20.9290   -4.4460  -34.0678 C   0  0  2  0  0  0  0  0  0  0  0  0
  -21.0566   -3.5497  -24.0170 C   0  0  2  0  0  0  0  0  0  0  0  0
  -23.4692   -3.4090  -24.1755 C   0  0  2  0  0  0  0  0  0  0  0  0
  -19.8457   -4.9770  -25.8847 C   0  0  1  0  0  0  0  0  0  0  0  0
  -19.7097   -3.5265  -34.0776 C   0  0  0  0  0  0  0  0  0  0  0  0
  -20.0919   -3.9813  -22.9188 C   0  0  0  0  0  0  0  0  0  0  0  0
  -25.4657   -4.6271  -24.4216 C   0  0  0  0  0  0  0  0  0  0  0  0
  -22.8529   -3.3126  -32.0717 N   0  0  0  0  0  0  0  0  0  0  0  0
  -17.8581   -6.2639  -25.1921 N   0  5  0  0  0  0  0  0  0  0  0  0
  -17.5989   -4.0891  -26.0249 N   0  0  0  0  0  0  0  0  0  0  0  0
  -22.1126   -3.8558  -26.1945 N   0  0  3  0  0  0  0  0  0  0  0  0
  -21.2264   -4.9252  -32.7405 N   0  0  0  0  0  0  0  0  0  0  0  0
  -19.8535   -6.8009  -24.3090 O   0  0  0  0  0  0  0  0  0  0  0  0
  -19.3320   -2.6858  -26.5374 O   0  0  0  0  0  0  0  0  0  0  0  0
  -15.8181   -5.4289  -25.6600 O   0  0  0  0  0  0  0  0  0  0  0  0
  -20.6645   -6.8768  -31.5548 O   0  0  0  0  0  0  0  0  0  0  0  0
  -23.2946   -2.8299  -30.8453 O   0  0  0  0  0  0  0  0  0  0  0  0
  -20.2358   -6.6548  -33.7915 O   0  0  0  0  0  0  0  0  0  0  0  0
  -22.3128   -3.3498  -23.3524 O   0  0  0  0  0  0  0  0  0  0  0  0
  -24.0781   -4.6987  -24.1296 O   0  0  0  0  0  0  0  0  0  0  0  0
  -23.6122   -2.2687  -28.0897 F   0  0  0  0  0  0  0  0  0  0  0  0
  -20.1923   -5.8035  -29.9147 H   0  0  0  0  0  0  0  0  0  0  0  0
  -20.6551   -6.6581  -27.0346 H   0  0  0  0  0  0  0  0  0  0  0  0
  -19.2165   -5.9245  -27.7426 H   0  0  0  0  0  0  0  0  0  0  0  0
  -24.1051   -3.2200  -26.2313 H   0  0  0  0  0  0  0  0  0  0  0  0
  -23.0621   -1.9519  -25.6768 H   0  0  0  0  0  0  0  0  0  0  0  0
  -21.5701   -6.1471  -35.2703 H   0  0  0  0  0  0  0  0  0  0  0  0
  -19.8823   -5.6558  -35.5702 H   0  0  0  0  0  0  0  0  0  0  0  0
  -21.7349   -5.4074  -24.8861 H   0  0  0  0  0  0  0  0  0  0  0  0
  -21.7941   -3.9205  -34.4870 H   0  0  0  0  0  0  0  0  0  0  0  0
  -20.7072   -2.5464  -24.3602 H   0  0  0  0  0  0  0  0  0  0  0  0
  -24.2444   -2.6950  -23.7531 H   0  0  0  0  0  0  0  0  0  0  0  0
  -18.8500   -4.0488  -33.6609 H   0  0  0  0  0  0  0  0  0  0  0  0
  -19.9117   -2.6391  -33.4800 H   0  0  0  0  0  0  0  0  0  0  0  0
  -19.4830   -3.2248  -35.0989 H   0  0  0  0  0  0  0  0  0  0  0  0
  -20.3772   -4.9611  -22.5360 H   0  0  0  0  0  0  0  0  0  0  0  0
  -20.1129   -3.2618  -22.1003 H   0  0  0  0  0  0  0  0  0  0  0  0
  -19.0778   -4.0376  -23.3146 H   0  0  0  0  0  0  0  0  0  0  0  0
  -25.9002   -5.6288  -24.3780 H   0  0  0  0  0  0  0  0  0  0  0  0
  -25.6078   -4.1996  -25.4173 H   0  0  0  0  0  0  0  0  0  0  0  0
  -25.9524   -3.9888  -23.6804 H   0  0  0  0  0  0  0  0  0  0  0  0
  -16.9426   -3.3556  -26.2763 H   0  0  0  0  0  0  0  0  0  0  0  0
  1  2  2  0  0  0  0
  1  3  1  0  0  0  0
  2  5  1  0  0  0  0
  2  7  1  0  0  0  0
  3  4  2  0  0  0  0
  3 12  1  0  0  0  0
  4  6  1  0  0  0  0
  4 26  1  0  0  0  0
  5  6  2  0  0  0  0
  5 32  1  0  0  0  0
  6 36  1  0  0  0  0
  7 23  2  0  0  0  0
  7 27  1  0  0  0  0
  8 19  1  0  0  0  0
  8 24  1  0  0  0  0
  8 28  2  0  0  0  0
  9 19  1  0  0  0  0
  9 25  1  0  0  0  0
  9 29  2  0  0  0  0
 10 24  1  0  0  0  0
 10 25  1  0  0  0  0
 10 30  2  0  0  0  0
 11 27  1  0  0  0  0
 11 31  2  0  0  0  0
 11 33  1  0  0  0  0
 12 19  1  0  0  0  0
 13 18  1  0  0  0  0
 13 26  1  0  0  0  0
 14 16  1  0  0  0  0
 14 33  1  0  0  0  0
 15 17  1  0  0  0  0
 15 19  1  0  0  0  0
 15 26  1  0  0  0  0
 16 20  1  0  0  0  0
 16 27  1  0  0  0  0
 17 21  1  0  0  0  0
 17 34  1  0  0  0  0
 18 34  1  0  0  0  0
 18 35  1  0  0  0  0
 22 35  1  0  0  0  0
 23 32  1  0  0  0  0
  1 37  1  0  0  0  0
 12 38  1  0  0  0  0
 12 39  1  0  0  0  0
 13 40  1  0  0  0  0
 13 41  1  0  0  0  0
 14 42  1  0  0  0  0
 14 43  1  0  0  0  0
 15 44  1  0  0  0  0
 16 45  1  0  0  0  0
 17 46  1  0  0  0  0
 18 47  1  0  0  0  0
 20 48  1  0  0  0  0
 20 49  1  0  0  0  0
 20 50  1  0  0  0  0
 21 51  1  0  0  0  0
 21 52  1  0  0  0  0
 21 53  1  0  0  0  0
 22 54  1  0  0  0  0
 22 55  1  0  0  0  0
 22 56  1  0  0  0  0
 25 57  1  0  0  0  0
M  CHG  1  24  -1
M  END
> <SMILES>
CO[C@@H]1CN2[C@H]([C@H](C)O1)C1(Cc3cc4c(noc4c(c32)F)N2[C@@H](C)COC2=O)C(=O)NC(=O)NC1=O

> <FORMATTED_ID>
H3D-003950

> <MOLFORMULA>
C22H22FN5O8

> <Exact Mass>
503.15

> <XLogP>
0.43

> <TPSA_NOPS>
152.8

> <s_m_source_file>
ligprep_h3d.sdf

> <i_m_source_file_index>
444

> <i_lp_mmshare_version>
55123

> <i_f3d_flags>
0

> <s_epik_input>
Tz1DMVtOSF1DKD1PKVtOSF1DKD1PKUMxMltDQEBIXTNOKFtDSDJdW0NAQEhdKE9bQ0gzXSlPW0NASF0zW0NIM10pYzRjKFtDSDJdMilbY0hdYzVjKGM0RilvbmM1TjZbQ0BASF0oW0NIM10pW0NIMl1PQzY9Tw==

> <s_epik_cmdline>
J2VwaWtfcHl0aG9uJywgJy1waHQnLCAnMC41JywgJy1waCcsICc3LjUnLCAnLXRuJywgJzgnLCAnLW1hJywgJzUwMCcsICctaW1hZScsICc8aW5maWxlLm1hZT4nLCAnLW9tYWUnLCAnPG91dGZpbGUubWFlPic=

> <r_lp_tautomer_probability>
1

> <r_epik_Ionization_Penalty>
0.423394

> <r_epik_Ionization_Penalty_Charging>
0.423379

> <r_epik_Ionization_Penalty_Neutral>
1.55901e-05

> <r_epik_State_Penalty>
0.42424

> <r_epik_Charging_Adjusted_Penalty>
0.847618

> <i_epik_Tot_Q>
-1

> <i_epik_Tot_abs_Q>
1

> <s_epik_Chemistry_Notes>
This compound has an ester and may undergo hydrolysis at high or low pH. This compound contains an acetal/aminal-like group ( X-CH(R)-Y where X, Y are N, S, or O) that may be acid/base labile, releasing an aldehyde.

> <s_lp_Force_Field>
S-OPLS

> <r_lp_Energy>
37.1868

> <b_lp_Chiralities_Consistent>
1

> <s_lp_Variant>
ligprep_h3d.sdf:444-2

> <ROCS_ShapeQuery>
_7L13

> <ROCS_TanimotoCombo>
0.740 

> <ROCS_ShapeTanimoto>
0.617 

> <ROCS_ColorTanimoto>
0.123 

> <ROCS_RefTversky>
0.776 

> <ROCS_RefColorTversky>
0.293 

> <ROCS_RefTverskyCombo>
1.070 

> <ROCS_FitTversky>
0.750 

> <ROCS_FitColorTversky>
0.175 

> <ROCS_FitTverskyCombo>
0.925 

> <ROCS_ColorScore>
-2.743

> <ROCS_Overlap>
1291.925

> <ROCS_Rank>
412                 

$$$$
ligprep_h3d.sdf:5353_1362
  -OEChem-08212117123D

 59 64  0     0  0  0  0  0  0999 V2000
  -19.2933   -5.2381  -35.6097 C   0  0  0  0  0  0  0  0  0  0  0  0
  -19.3912   -6.4665  -34.9562 C   0  0  0  0  0  0  0  0  0  0  0  0
  -20.0175   -4.1406  -35.1439 C   0  0  0  0  0  0  0  0  0  0  0  0
  -20.2134   -6.5975  -33.8371 C   0  0  0  0  0  0  0  0  0  0  0  0
  -20.8397   -4.2717  -34.0248 C   0  0  0  0  0  0  0  0  0  0  0  0
  -23.5138   -4.4578  -28.2002 C   0  0  0  0  0  0  0  0  0  0  0  0
  -23.3303   -4.4285  -29.5855 C   0  0  0  0  0  0  0  0  0  0  0  0
  -20.9229   -4.4571  -29.3040 C   0  0  0  0  0  0  0  0  0  0  0  0
  -26.5581   -4.6374  -22.3928 C   0  0  0  0  0  0  0  0  0  0  0  0
  -27.4800   -5.3234  -23.1394 C   0  0  0  0  0  0  0  0  0  0  0  0
  -21.1137   -4.4800  -27.9276 C   0  0  0  0  0  0  0  0  0  0  0  0
  -20.9376   -5.5001  -33.3713 C   0  0  0  0  0  0  0  0  0  0  0  0
  -22.3984   -4.4787  -27.3706 C   0  0  0  0  0  0  0  0  0  0  0  0
  -22.0426   -4.4269  -30.1342 C   0  0  0  0  0  0  0  0  0  0  0  0
  -25.6463   -5.1195  -24.3562 C   0  0  0  0  0  0  0  0  0  0  0  0
  -24.5921   -5.1517  -25.4054 C   0  0  0  0  0  0  0  0  0  0  0  0
  -23.2609   -3.9271  -23.7851 C   0  0  0  0  0  0  0  0  0  0  0  0
  -24.2323   -3.9127  -22.8527 C   0  0  0  0  0  0  0  0  0  0  0  0
  -23.4162   -4.5569  -25.1082 C   0  0  0  0  0  0  0  0  0  0  0  0
  -19.4131   -5.9585  -26.8267 C   0  0  0  0  0  0  0  0  0  0  0  0
  -18.9971   -3.4632  -26.9707 C   0  0  0  0  0  0  0  0  0  0  0  0
  -20.9609   -4.3369  -25.5703 C   0  0  0  0  0  0  0  0  0  0  0  0
  -18.2812   -6.0754  -25.8127 C   0  0  0  0  0  0  0  0  0  0  0  0
  -17.8964   -3.6030  -25.9285 C   0  0  0  0  0  0  0  0  0  0  0  0
  -20.0719   -4.5606  -26.8373 C   0  0  0  0  0  0  0  0  0  0  0  0
  -21.8224   -5.6405  -32.1676 C   0  0  0  0  0  0  0  0  0  0  0  0
  -25.4249   -4.5224  -23.1703 N   0  0  0  0  0  0  0  0  0  0  0  0
  -26.8890   -5.6088  -24.3482 N   0  3  0  0  0  0  0  0  0  0  0  0
  -22.3652   -4.5061  -25.9629 N   0  0  0  0  0  0  0  0  0  0  0  0
  -17.3039   -4.9692  -26.0274 N   0  3  0  0  0  0  0  0  0  0  0  0
  -21.8837   -4.3888  -31.4863 O   0  0  0  0  0  0  0  0  0  0  0  0
  -18.6521   -5.1359  -36.4803 H   0  0  0  0  0  0  0  0  0  0  0  0
  -18.8266   -7.3208  -35.3181 H   0  0  0  0  0  0  0  0  0  0  0  0
  -19.9407   -3.1838  -35.6518 H   0  0  0  0  0  0  0  0  0  0  0  0
  -20.2837   -7.5586  -33.3344 H   0  0  0  0  0  0  0  0  0  0  0  0
  -21.4003   -3.4113  -33.6691 H   0  0  0  0  0  0  0  0  0  0  0  0
  -24.5224   -4.4690  -27.8006 H   0  0  0  0  0  0  0  0  0  0  0  0
  -24.1995   -4.4053  -30.2382 H   0  0  0  0  0  0  0  0  0  0  0  0
  -19.9239   -4.4526  -29.7282 H   0  0  0  0  0  0  0  0  0  0  0  0
  -26.5526   -4.2118  -21.4072 H   0  0  0  0  0  0  0  0  0  0  0  0
  -28.4873   -5.6583  -22.9900 H   0  0  0  0  0  0  0  0  0  0  0  0
  -24.7921   -5.6377  -26.3523 H   0  0  0  0  0  0  0  0  0  0  0  0
  -22.3086   -3.4536  -23.5631 H   0  0  0  0  0  0  0  0  0  0  0  0
  -24.1284   -3.4530  -21.8785 H   0  0  0  0  0  0  0  0  0  0  0  0
  -19.0108   -6.1931  -27.8239 H   0  0  0  0  0  0  0  0  0  0  0  0
  -20.1642   -6.7366  -26.6248 H   0  0  0  0  0  0  0  0  0  0  0  0
  -19.4467   -2.4679  -26.8878 H   0  0  0  0  0  0  0  0  0  0  0  0
  -18.5391   -3.5099  -27.9658 H   0  0  0  0  0  0  0  0  0  0  0  0
  -20.7298   -5.0794  -24.7948 H   0  0  0  0  0  0  0  0  0  0  0  0
  -20.8050   -3.3481  -25.1243 H   0  0  0  0  0  0  0  0  0  0  0  0
  -18.6348   -6.0063  -24.7772 H   0  0  0  0  0  0  0  0  0  0  0  0
  -17.7308   -7.0147  -25.9377 H   0  0  0  0  0  0  0  0  0  0  0  0
  -17.0865   -2.8924  -26.1073 H   0  0  0  0  0  0  0  0  0  0  0  0
  -18.2616   -3.4804  -24.9066 H   0  0  0  0  0  0  0  0  0  0  0  0
  -22.8354   -5.9387  -32.4586 H   0  0  0  0  0  0  0  0  0  0  0  0
  -21.4305   -6.4022  -31.4850 H   0  0  0  0  0  0  0  0  0  0  0  0
  -27.3285   -6.1120  -25.1140 H   0  0  0  0  0  0  0  0  0  0  0  0
  -16.5428   -5.0548  -25.3398 H   0  0  0  0  0  0  0  0  0  0  0  0
  -16.8574   -5.0814  -26.9485 H   0  0  0  0  0  0  0  0  0  0  0  0
  1  2  2  0  0  0  0
  1  3  1  0  0  0  0
  2  4  1  0  0  0  0
  3  5  2  0  0  0  0
  4 12  2  0  0  0  0
  5 12  1  0  0  0  0
  6  7  1  0  0  0  0
  6 13  2  0  0  0  0
  7 14  2  0  0  0  0
  8 11  2  0  0  0  0
  8 14  1  0  0  0  0
  9 10  2  0  0  0  0
  9 27  1  0  0  0  0
 10 28  1  0  0  0  0
 11 13  1  0  0  0  0
 11 25  1  0  0  0  0
 12 26  1  0  0  0  0
 13 29  1  0  0  0  0
 14 31  1  0  0  0  0
 15 16  1  0  0  0  0
 15 27  1  0  0  0  0
 15 28  2  0  0  0  0
 16 19  2  0  0  0  0
 17 18  2  0  0  0  0
 17 19  1  0  0  0  0
 18 27  1  0  0  0  0
 19 29  1  0  0  0  0
 20 23  1  0  0  0  0
 20 25  1  0  0  0  0
 21 24  1  0  0  0  0
 21 25  1  0  0  0  0
 22 25  1  0  0  0  0
 22 29  1  0  0  0  0
 23 30  1  0  0  0  0
 24 30  1  0  0  0  0
 26 31  1  0  0  0  0
  1 32  1  0  0  0  0
  2 33  1  0  0  0  0
  3 34  1  0  0  0  0
  4 35  1  0  0  0  0
  5 36  1  0  0  0  0
  6 37  1  0  0  0  0
  7 38  1  0  0  0  0
  8 39  1  0  0  0  0
  9 40  1  0  0  0  0
 10 41  1  0  0  0  0
 16 42  1  0  0  0  0
 17 43  1  0  0  0  0
 18 44  1  0  0  0  0
 20 45  1  0  0  0  0
 20 46  1  0  0  0  0
 21 47  1  0  0  0  0
 21 48  1  0  0  0  0
 22 49  1  0  0  0  0
 22 50  1  0  0  0  0
 23 51  1  0  0  0  0
 23 52  1  0  0  0  0
 24 53  1  0  0  0  0
 24 54  1  0  0  0  0
 26 55  1  0  0  0  0
 26 56  1  0  0  0  0
 28 57  1  0  0  0  0
 30 58  1  0  0  0  0
 30 59  1  0  0  0  0
M  CHG  2  28   1  30   1
M  END
> <SMILES>
C1CC2(CCN1)CN(c1ccn3ccnc3c1)c1ccc(cc12)OCc1ccccc1

> <FORMATTED_ID>
H3D-015055

> <MOLFORMULA>
C26H26N4O

> <Exact Mass>
410.21

> <XLogP>
5.79

> <TPSA_NOPS>
41.8

> <s_m_source_file>
ligprep_h3d.sdf

> <i_m_source_file_index>
5353

> <i_lp_mmshare_version>
55123

> <i_f3d_flags>
0

> <s_epik_input>
W0NIMl0xW0NIMl1bTkhdW0NIMl1bQ0gyXUMxMmMzYyhOKFtDSDJdMiljKFtjSF1bY0hdNClbY0hdYyhuNDUpbltjSF1bY0hdNSlbY0hdW2NIXWMoW2NIXTMpT1tDSDJdYzZbY0hdW2NIXVtjSF1bY0hdW2NIXTY=

> <s_epik_cmdline>
J2VwaWtfcHl0aG9uJywgJy1waHQnLCAnMC41JywgJy1waCcsICc3LjUnLCAnLXRuJywgJzgnLCAnLW1hJywgJzUwMCcsICctaW1hZScsICc8aW5maWxlLm1hZT4nLCAnLW9tYWUnLCAnPG91dGZpbGUubWFlPic=

> <r_lp_tautomer_probability>
1

> <r_epik_Ionization_Penalty>
0.400734

> <r_epik_Ionization_Penalty_Charging>
0.00220253

> <r_epik_Ionization_Penalty_Neutral>
0.398532

> <r_epik_State_Penalty>
0.397726

> <r_epik_Charging_Adjusted_Penalty>
0.399929

> <i_epik_Tot_Q>
2

> <i_epik_Tot_abs_Q>
2

> <s_lp_Force_Field>
S-OPLS

> <r_lp_Energy>
76.4577

> <b_lp_Chiralities_Consistent>
1

> <s_lp_Variant>
ligprep_h3d.sdf:5353-1

> <ROCS_ShapeQuery>
_7L13

> <ROCS_TanimotoCombo>
0.809 

> <ROCS_ShapeTanimoto>
0.699 

> <ROCS_ColorTanimoto>
0.110 

> <ROCS_RefTversky>
0.776 

> <ROCS_RefColorTversky>
0.218 

> <ROCS_RefTverskyCombo>
0.994 

> <ROCS_FitTversky>
0.875 

> <ROCS_FitColorTversky>
0.181 

> <ROCS_FitTverskyCombo>
1.056 

> <ROCS_ColorScore>
-1.981

> <ROCS_Overlap>
1281.353

> <ROCS_Rank>
413                 

$$$$
ligprep_h3d.sdf:1224_1288
  -OEChem-08212117123D

 72 76  0     0  0  0  0  0  0999 V2000
  -19.5901   -3.9588  -32.2729 C   0  0  0  0  0  0  0  0  0  0  0  0
  -20.2501   -6.2793  -32.1437 C   0  0  0  0  0  0  0  0  0  0  0  0
  -18.9953   -4.1969  -33.5119 C   0  0  0  0  0  0  0  0  0  0  0  0
  -19.6553   -6.5175  -33.3827 C   0  0  0  0  0  0  0  0  0  0  0  0
  -16.4948   -5.1306  -26.4900 C   0  0  0  0  0  0  0  0  0  0  0  0
  -22.7737   -4.1291  -29.0100 C   0  0  0  0  0  0  0  0  0  0  0  0
  -20.6397   -4.5383  -25.4676 C   0  0  0  0  0  0  0  0  0  0  0  0
  -17.0190   -6.4355  -26.4248 C   0  0  0  0  0  0  0  0  0  0  0  0
  -20.7171   -4.6510  -27.8813 C   0  0  0  0  0  0  0  0  0  0  0  0
  -20.2175   -5.0000  -31.5888 C   0  0  0  0  0  0  0  0  0  0  0  0
  -20.8343   -4.7530  -30.3036 C   0  0  0  0  0  0  0  0  0  0  0  0
  -19.0279   -5.4762  -34.0668 C   0  0  0  0  0  0  0  0  0  0  0  0
  -22.1686   -4.3702  -30.2460 C   0  0  0  0  0  0  0  0  0  0  0  0
  -20.1083   -4.8936  -29.1244 C   0  0  0  0  0  0  0  0  0  0  0  0
  -22.0716   -4.2622  -27.8152 C   0  0  0  0  0  0  0  0  0  0  0  0
  -20.0098   -4.7849  -26.6789 C   0  0  0  0  0  0  0  0  0  0  0  0
  -21.9673   -4.1628  -25.5034 C   0  0  0  0  0  0  0  0  0  0  0  0
  -17.5996   -4.3217  -26.5977 C   0  0  0  0  0  0  0  0  0  0  0  0
  -22.6866   -3.8911  -24.2708 C   0  0  0  0  0  0  0  0  0  0  0  0
  -26.0956   -4.8528  -23.0563 C   0  0  0  0  0  0  0  0  0  0  0  0
  -18.6613   -6.9082  -37.4892 C   0  0  0  0  0  0  0  0  0  0  0  0
  -20.1772   -5.1316  -36.9023 C   0  0  0  0  0  0  0  0  0  0  0  0
  -19.6836   -7.4057  -38.5072 C   0  0  0  0  0  0  0  0  0  0  0  0
  -21.1641   -5.6716  -37.9332 C   0  0  0  0  0  0  0  0  0  0  0  0
  -22.9941   -4.2031  -31.4822 C   0  0  0  0  0  0  0  0  0  0  0  0
  -18.6709   -5.3102  -29.2652 C   0  0  0  0  0  0  0  0  0  0  0  0
  -17.7075   -2.8534  -26.7038 C   0  0  0  0  0  0  0  0  0  0  0  0
  -27.2020   -6.6681  -24.0936 C   0  0  0  0  0  0  0  0  0  0  0  0
  -18.3875   -5.7327  -35.4003 C   0  0  0  0  0  0  0  0  0  0  0  0
  -24.9185   -3.9085  -23.1267 C   0  0  0  0  0  0  0  0  0  0  0  0
  -18.3531   -6.4589  -26.4857 N   0  0  0  0  0  0  0  0  0  0  0  0
  -22.6854   -4.0221  -26.6411 N   0  0  0  0  0  0  0  0  0  0  0  0
  -18.6765   -5.1587  -26.5904 N   0  0  0  0  0  0  0  0  0  0  0  0
  -19.3492   -6.2287  -36.3826 N   0  0  0  0  0  0  0  0  0  0  0  0
  -24.0631   -4.1488  -24.2665 N   0  0  0  0  0  0  0  0  0  0  0  0
  -22.0918   -3.4301  -23.2795 O   0  0  0  0  0  0  0  0  0  0  0  0
  -26.9221   -4.7994  -22.1514 O   0  0  0  0  0  0  0  0  0  0  0  0
  -20.4664   -6.3171  -38.9990 O   0  0  0  0  0  0  0  0  0  0  0  0
  -26.1145   -5.7372  -24.0911 O   0  0  0  0  0  0  0  0  0  0  0  0
  -19.5558   -2.9562  -31.8532 H   0  0  0  0  0  0  0  0  0  0  0  0
  -20.7358   -7.1011  -31.6229 H   0  0  0  0  0  0  0  0  0  0  0  0
  -18.5078   -3.3801  -34.0373 H   0  0  0  0  0  0  0  0  0  0  0  0
  -19.6859   -7.5172  -33.8079 H   0  0  0  0  0  0  0  0  0  0  0  0
  -15.4600   -4.8219  -26.4623 H   0  0  0  0  0  0  0  0  0  0  0  0
  -23.8208   -3.8297  -28.9798 H   0  0  0  0  0  0  0  0  0  0  0  0
  -20.1146   -4.6347  -24.5212 H   0  0  0  0  0  0  0  0  0  0  0  0
  -16.4844   -7.3702  -26.3351 H   0  0  0  0  0  0  0  0  0  0  0  0
  -18.0883   -7.7632  -37.1128 H   0  0  0  0  0  0  0  0  0  0  0  0
  -17.9620   -6.2199  -37.9817 H   0  0  0  0  0  0  0  0  0  0  0  0
  -19.5443   -4.3656  -37.3691 H   0  0  0  0  0  0  0  0  0  0  0  0
  -20.7378   -4.6593  -36.0875 H   0  0  0  0  0  0  0  0  0  0  0  0
  -19.1685   -7.8581  -39.3607 H   0  0  0  0  0  0  0  0  0  0  0  0
  -20.3449   -8.1672  -38.0766 H   0  0  0  0  0  0  0  0  0  0  0  0
  -21.8764   -6.3744  -37.4836 H   0  0  0  0  0  0  0  0  0  0  0  0
  -21.7409   -4.8474  -38.3648 H   0  0  0  0  0  0  0  0  0  0  0  0
  -22.9206   -3.1736  -31.8488 H   0  0  0  0  0  0  0  0  0  0  0  0
  -22.6596   -4.8831  -32.2742 H   0  0  0  0  0  0  0  0  0  0  0  0
  -24.0480   -4.4322  -31.2860 H   0  0  0  0  0  0  0  0  0  0  0  0
  -18.5978   -6.4004  -29.2447 H   0  0  0  0  0  0  0  0  0  0  0  0
  -18.2517   -4.9414  -30.2055 H   0  0  0  0  0  0  0  0  0  0  0  0
  -18.0669   -4.8960  -28.4530 H   0  0  0  0  0  0  0  0  0  0  0  0
  -17.6883   -2.5287  -27.7571 H   0  0  0  0  0  0  0  0  0  0  0  0
  -18.6401   -2.4734  -26.2529 H   0  0  0  0  0  0  0  0  0  0  0  0
  -16.8840   -2.3391  -26.1794 H   0  0  0  0  0  0  0  0  0  0  0  0
  -27.1180   -7.3254  -24.9626 H   0  0  0  0  0  0  0  0  0  0  0  0
  -28.1490   -6.1234  -24.1257 H   0  0  0  0  0  0  0  0  0  0  0  0
  -27.1593   -7.2672  -23.1810 H   0  0  0  0  0  0  0  0  0  0  0  0
  -17.9426   -4.8140  -35.7980 H   0  0  0  0  0  0  0  0  0  0  0  0
  -17.5845   -6.4723  -35.3149 H   0  0  0  0  0  0  0  0  0  0  0  0
  -24.3106   -4.0317  -22.2267 H   0  0  0  0  0  0  0  0  0  0  0  0
  -25.2868   -2.8824  -23.2037 H   0  0  0  0  0  0  0  0  0  0  0  0
  -24.5104   -4.4647  -25.1209 H   0  0  0  0  0  0  0  0  0  0  0  0
  1  3  1  0  0  0  0
  1 10  2  0  0  0  0
  2  4  2  0  0  0  0
  2 10  1  0  0  0  0
  3 12  2  0  0  0  0
  4 12  1  0  0  0  0
  5  8  1  0  0  0  0
  5 18  2  0  0  0  0
  6 13  2  0  0  0  0
  6 15  1  0  0  0  0
  7 16  1  0  0  0  0
  7 17  2  0  0  0  0
  8 31  2  0  0  0  0
  9 14  1  0  0  0  0
  9 15  1  0  0  0  0
  9 16  2  0  0  0  0
 10 11  1  0  0  0  0
 11 13  1  0  0  0  0
 11 14  2  0  0  0  0
 12 29  1  0  0  0  0
 13 25  1  0  0  0  0
 14 26  1  0  0  0  0
 15 32  2  0  0  0  0
 16 33  1  0  0  0  0
 17 19  1  0  0  0  0
 17 32  1  0  0  0  0
 18 27  1  0  0  0  0
 18 33  1  0  0  0  0
 19 35  1  0  0  0  0
 19 36  2  0  0  0  0
 20 30  1  0  0  0  0
 20 37  2  0  0  0  0
 20 39  1  0  0  0  0
 21 23  1  0  0  0  0
 21 34  1  0  0  0  0
 22 24  1  0  0  0  0
 22 34  1  0  0  0  0
 23 38  1  0  0  0  0
 24 38  1  0  0  0  0
 28 39  1  0  0  0  0
 29 34  1  0  0  0  0
 30 35  1  0  0  0  0
 31 33  1  0  0  0  0
  1 40  1  0  0  0  0
  2 41  1  0  0  0  0
  3 42  1  0  0  0  0
  4 43  1  0  0  0  0
  5 44  1  0  0  0  0
  6 45  1  0  0  0  0
  7 46  1  0  0  0  0
  8 47  1  0  0  0  0
 21 48  1  0  0  0  0
 21 49  1  0  0  0  0
 22 50  1  0  0  0  0
 22 51  1  0  0  0  0
 23 52  1  0  0  0  0
 23 53  1  0  0  0  0
 24 54  1  0  0  0  0
 24 55  1  0  0  0  0
 25 56  1  0  0  0  0
 25 57  1  0  0  0  0
 25 58  1  0  0  0  0
 26 59  1  0  0  0  0
 26 60  1  0  0  0  0
 26 61  1  0  0  0  0
 27 62  1  0  0  0  0
 27 63  1  0  0  0  0
 27 64  1  0  0  0  0
 28 65  1  0  0  0  0
 28 66  1  0  0  0  0
 28 67  1  0  0  0  0
 29 68  1  0  0  0  0
 29 69  1  0  0  0  0
 30 70  1  0  0  0  0
 30 71  1  0  0  0  0
 35 72  1  0  0  0  0
M  END
> <SMILES>
COC(=O)CNC(=O)c1cc(c2c(c(c(cc2n1)C)-c1ccc(cc1)CN1CCOCC1)C)-n1nccc1C

> <FORMATTED_ID>
H3D-008382

> <MOLFORMULA>
C30H33N5O4

> <Exact Mass>
527.25

> <XLogP>
3.57

> <TPSA_NOPS>
98.6

> <s_m_source_file>
ligprep_h3d.sdf

> <i_m_source_file_index>
1224

> <i_lp_mmshare_version>
55123

> <i_f3d_flags>
0

> <s_epik_input>
W0NIM11jMVtjSF1bY0hdbm4xLWMyW2NIXWMoQyg9TylbTkhdW0NIMl1DKD1PKU9bQ0gzXSluYyhjMjMpW2NIXWMoW0NIM10pYyhjM1tDSDNdKS1jNFtjSF1bY0hdYyhbY0hdW2NIXTQpW0NIMl1ONVtDSDJdW0NIMl1PW0NIMl1bQ0gyXTU=

> <s_epik_cmdline>
J2VwaWtfcHl0aG9uJywgJy1waHQnLCAnMC41JywgJy1waCcsICc3LjUnLCAnLXRuJywgJzgnLCAnLW1hJywgJzUwMCcsICctaW1hZScsICc8aW5maWxlLm1hZT4nLCAnLW9tYWUnLCAnPG91dGZpbGUubWFlPic=

> <r_lp_tautomer_probability>
1

> <r_epik_Ionization_Penalty>
0.105574

> <r_epik_Ionization_Penalty_Charging>
0

> <r_epik_Ionization_Penalty_Neutral>
0.105574

> <r_epik_State_Penalty>
0.095414

> <r_epik_Charging_Adjusted_Penalty>
0.095414

> <i_epik_Tot_Q>
0

> <i_epik_Tot_abs_Q>
0

> <s_epik_Chemistry_Notes>
This compound has an ester and may undergo hydrolysis at high or low pH.

> <s_lp_Force_Field>
S-OPLS

> <r_lp_Energy>
70.0199

> <b_lp_Chiralities_Consistent>
1

> <s_lp_Variant>
ligprep_h3d.sdf:1224-1

> <ROCS_ShapeQuery>
_7L13

> <ROCS_TanimotoCombo>
0.758 

> <ROCS_ShapeTanimoto>
0.596 

> <ROCS_ColorTanimoto>
0.162 

> <ROCS_RefTversky>
0.776 

> <ROCS_RefColorTversky>
0.320 

> <ROCS_RefTverskyCombo>
1.097 

> <ROCS_FitTversky>
0.719 

> <ROCS_FitColorTversky>
0.247 

> <ROCS_FitTverskyCombo>
0.966 

> <ROCS_ColorScore>
-2.930

> <ROCS_Overlap>
1294.978

> <ROCS_Rank>
414                 

$$$$
ligprep_h3d.sdf:1111_64
  -OEChem-08212117123D

 61 66  0     1  0  0  0  0  0999 V2000
  -20.9567   -5.1235  -29.5132 C   0  0  0  0  0  0  0  0  0  0  0  0
  -21.7384   -4.3709  -30.3919 C   0  0  0  0  0  0  0  0  0  0  0  0
  -21.0736   -4.8857  -28.1220 C   0  0  0  0  0  0  0  0  0  0  0  0
  -21.9819   -3.9430  -27.5855 C   0  0  0  0  0  0  0  0  0  0  0  0
  -22.5956   -3.4301  -29.8652 C   0  0  0  0  0  0  0  0  0  0  0  0
  -22.7470   -3.1817  -28.5008 C   0  0  0  0  0  0  0  0  0  0  0  0
  -21.9345   -4.2629  -31.7813 C   0  0  0  0  0  0  0  0  0  0  0  0
  -18.9194   -3.8066  -26.2028 C   0  0  0  0  0  0  0  0  0  0  0  0
  -19.2423   -6.0777  -25.0263 C   0  0  0  0  0  0  0  0  0  0  0  0
  -16.9889   -5.2953  -25.7250 C   0  0  0  0  0  0  0  0  0  0  0  0
  -20.2008   -5.7008  -27.2054 C   0  0  0  0  0  0  0  0  0  0  0  0
  -20.1870   -5.2566  -34.9142 C   0  0  0  0  0  0  0  0  0  0  0  0
  -20.6047   -7.2910  -33.5259 C   0  0  0  0  0  0  0  0  0  0  0  0
  -20.3902   -4.3771  -33.6839 C   0  0  0  0  0  0  0  0  0  0  0  0
  -20.8132   -6.4103  -32.2964 C   0  0  0  0  0  0  0  0  0  0  0  0
  -23.0579   -2.8102  -25.6511 C   0  0  0  0  0  0  0  0  0  0  0  0
  -21.2088   -4.4756  -25.2398 C   0  0  2  0  0  0  0  0  0  0  0  0
  -19.6641   -6.6380  -34.5325 C   0  0  0  0  0  0  0  0  0  0  0  0
  -23.4279   -3.1278  -24.1995 C   0  0  1  0  0  0  0  0  0  0  0  0
  -21.0518   -3.5419  -24.0043 C   0  0  2  0  0  0  0  0  0  0  0  0
  -19.8754   -4.9670  -25.8805 C   0  0  0  0  0  0  0  0  0  0  0  0
  -24.4070   -4.2945  -24.0837 C   0  0  0  0  0  0  0  0  0  0  0  0
  -20.0952   -4.0198  -22.9184 C   0  0  0  0  0  0  0  0  0  0  0  0
  -22.8387   -3.3299  -32.0945 N   0  0  0  0  0  0  0  0  0  0  0  0
  -17.5741   -4.1394  -26.2214 N   0  0  0  0  0  0  0  0  0  0  0  0
  -17.8643   -6.1899  -25.1259 N   0  0  0  0  0  0  0  0  0  0  0  0
  -22.0951   -3.7716  -26.2038 N   0  0  3  0  0  0  0  0  0  0  0  0
  -21.2347   -5.0617  -32.6940 N   0  0  0  0  0  0  0  0  0  0  0  0
  -19.3055   -2.6735  -26.4893 O   0  0  0  0  0  0  0  0  0  0  0  0
  -19.9096   -6.8752  -24.3660 O   0  0  0  0  0  0  0  0  0  0  0  0
  -15.7740   -5.4945  -25.7760 O   0  0  0  0  0  0  0  0  0  0  0  0
  -23.2543   -2.8022  -30.8775 O   0  0  0  0  0  0  0  0  0  0  0  0
  -22.3154   -3.3829  -23.3474 O   0  0  0  0  0  0  0  0  0  0  0  0
  -19.5878   -7.4613  -35.6901 O   0  0  0  0  0  0  0  0  0  0  0  0
  -23.5349   -2.1636  -28.1352 F   0  0  0  0  0  0  0  0  0  0  0  0
  -20.2648   -5.8716  -29.8899 H   0  0  0  0  0  0  0  0  0  0  0  0
  -20.7238   -6.6468  -27.0088 H   0  0  0  0  0  0  0  0  0  0  0  0
  -19.2675   -5.9600  -27.7240 H   0  0  0  0  0  0  0  0  0  0  0  0
  -21.1304   -5.3520  -35.4680 H   0  0  0  0  0  0  0  0  0  0  0  0
  -19.4865   -4.7745  -35.6069 H   0  0  0  0  0  0  0  0  0  0  0  0
  -20.2034   -8.2652  -33.2216 H   0  0  0  0  0  0  0  0  0  0  0  0
  -21.5709   -7.5061  -34.0015 H   0  0  0  0  0  0  0  0  0  0  0  0
  -19.4214   -4.1343  -33.2290 H   0  0  0  0  0  0  0  0  0  0  0  0
  -20.8518   -3.4317  -33.9961 H   0  0  0  0  0  0  0  0  0  0  0  0
  -21.5681   -6.8765  -31.6505 H   0  0  0  0  0  0  0  0  0  0  0  0
  -19.8828   -6.3445  -31.7179 H   0  0  0  0  0  0  0  0  0  0  0  0
  -23.9685   -2.8564  -26.2836 H   0  0  0  0  0  0  0  0  0  0  0  0
  -22.7519   -1.7535  -25.6901 H   0  0  0  0  0  0  0  0  0  0  0  0
  -21.7826   -5.3573  -24.9144 H   0  0  0  0  0  0  0  0  0  0  0  0
  -18.6564   -6.5563  -34.1079 H   0  0  0  0  0  0  0  0  0  0  0  0
  -23.9799   -2.2237  -23.7645 H   0  0  0  0  0  0  0  0  0  0  0  0
  -20.7116   -2.5367  -24.3139 H   0  0  0  0  0  0  0  0  0  0  0  0
  -23.9535   -5.2030  -24.4803 H   0  0  0  0  0  0  0  0  0  0  0  0
  -25.3144   -4.0773  -24.6475 H   0  0  0  0  0  0  0  0  0  0  0  0
  -24.6706   -4.4581  -23.0386 H   0  0  0  0  0  0  0  0  0  0  0  0
  -20.3868   -5.0126  -22.5755 H   0  0  0  0  0  0  0  0  0  0  0  0
  -20.1182   -3.3325  -22.0728 H   0  0  0  0  0  0  0  0  0  0  0  0
  -19.0792   -4.0651  -23.3104 H   0  0  0  0  0  0  0  0  0  0  0  0
  -16.9473   -3.4622  -26.6453 H   0  0  0  0  0  0  0  0  0  0  0  0
  -17.4423   -6.9901  -24.6635 H   0  0  0  0  0  0  0  0  0  0  0  0
  -18.9788   -7.0221  -36.3051 H   0  0  0  0  0  0  0  0  0  0  0  0
  1  2  2  0  0  0  0
  1  3  1  0  0  0  0
  2  5  1  0  0  0  0
  2  7  1  0  0  0  0
  3  4  2  0  0  0  0
  3 11  1  0  0  0  0
  4  6  1  0  0  0  0
  4 27  1  0  0  0  0
  5  6  2  0  0  0  0
  5 32  1  0  0  0  0
  6 35  1  0  0  0  0
  7 24  2  0  0  0  0
  7 28  1  0  0  0  0
  8 21  1  0  0  0  0
  8 25  1  0  0  0  0
  8 29  2  0  0  0  0
  9 21  1  0  0  0  0
  9 26  1  0  0  0  0
  9 30  2  0  0  0  0
 10 25  1  0  0  0  0
 10 26  1  0  0  0  0
 10 31  2  0  0  0  0
 11 21  1  0  0  0  0
 12 14  1  0  0  0  0
 12 18  1  0  0  0  0
 13 15  1  0  0  0  0
 13 18  1  0  0  0  0
 14 28  1  0  0  0  0
 15 28  1  0  0  0  0
 16 19  1  0  0  0  0
 16 27  1  0  0  0  0
 17 20  1  0  0  0  0
 17 21  1  0  0  0  0
 17 27  1  0  0  0  0
 18 34  1  0  0  0  0
 19 22  1  0  0  0  0
 19 33  1  0  0  0  0
 20 23  1  0  0  0  0
 20 33  1  0  0  0  0
 24 32  1  0  0  0  0
  1 36  1  0  0  0  0
 11 37  1  0  0  0  0
 11 38  1  0  0  0  0
 12 39  1  0  0  0  0
 12 40  1  0  0  0  0
 13 41  1  0  0  0  0
 13 42  1  0  0  0  0
 14 43  1  0  0  0  0
 14 44  1  0  0  0  0
 15 45  1  0  0  0  0
 15 46  1  0  0  0  0
 16 47  1  0  0  0  0
 16 48  1  0  0  0  0
 17 49  1  0  0  0  0
 18 50  1  0  0  0  0
 19 51  1  0  0  0  0
 20 52  1  0  0  0  0
 22 53  1  0  0  0  0
 22 54  1  0  0  0  0
 22 55  1  0  0  0  0
 23 56  1  0  0  0  0
 23 57  1  0  0  0  0
 23 58  1  0  0  0  0
 25 59  1  0  0  0  0
 26 60  1  0  0  0  0
 34 61  1  0  0  0  0
M  END
> <SMILES>
CC1CN2C(C(C)O1)C1(Cc3cc4c(noc4c(c32)F)N2CCC(O)CC2)C(=O)NC(=O)NC1=O

> <FORMATTED_ID>
H3D-006964

> <MOLFORMULA>
C23H26FN5O6

> <Exact Mass>
487.19

> <XLogP>
0.29

> <TPSA_NOPS>
137.5

> <s_m_source_file>
ligprep_h3d.sdf

> <i_m_source_file_index>
1111

> <i_lp_mmshare_version>
55123

> <i_f3d_flags>
0

> <s_epik_input>
Tz1DMVtOSF1DKD1PKVtOSF1DKD1PKUMxMltDQEBIXTNOKFtDSDJdW0NAQEhdKFtDSDNdKU9bQ0BIXTNbQ0gzXSljNGMoW0NIMl0yKVtjSF1jNWMoYzRGKW9uYzVONltDSDJdW0NIMl1bQ0hdKFtPSF0pW0NIMl1bQ0gyXTY=

> <s_epik_cmdline>
J2VwaWtfcHl0aG9uJywgJy1waHQnLCAnMC41JywgJy1waCcsICc3LjUnLCAnLXRuJywgJzgnLCAnLW1hJywgJzUwMCcsICctaW1hZScsICc8aW5maWxlLm1hZT4nLCAnLW9tYWUnLCAnPG91dGZpbGUubWFlPic=

> <r_lp_tautomer_probability>
1

> <r_epik_Ionization_Penalty>
0.369127

> <r_epik_Ionization_Penalty_Charging>
0

> <r_epik_Ionization_Penalty_Neutral>
0.369127

> <r_epik_State_Penalty>
0.366447

> <r_epik_Charging_Adjusted_Penalty>
0.366447

> <i_epik_Tot_Q>
0

> <i_epik_Tot_abs_Q>
0

> <s_lp_Force_Field>
S-OPLS

> <r_lp_Energy>
45.199

> <b_lp_Chiralities_Consistent>
1

> <s_lp_Variant>
ligprep_h3d.sdf:1111-1

> <ROCS_ShapeQuery>
_7L13

> <ROCS_TanimotoCombo>
0.768 

> <ROCS_ShapeTanimoto>
0.638 

> <ROCS_ColorTanimoto>
0.130 

> <ROCS_RefTversky>
0.776 

> <ROCS_RefColorTversky>
0.298 

> <ROCS_RefTverskyCombo>
1.074 

> <ROCS_FitTversky>
0.782 

> <ROCS_FitColorTversky>
0.188 

> <ROCS_FitTverskyCombo>
0.969 

> <ROCS_ColorScore>
-2.768

> <ROCS_Overlap>
1288.639

> <ROCS_Rank>
415                 

$$$$
ligprep_h3d.sdf:5638_1104
  -OEChem-08212117123D

 51 55  0     0  0  0  0  0  0999 V2000
  -25.5367   -4.6167  -23.1339 C   0  0  0  0  0  0  0  0  0  0  0  0
  -25.6228   -5.3627  -24.3093 C   0  0  0  0  0  0  0  0  0  0  0  0
  -24.4130   -3.8271  -22.8896 C   0  0  0  0  0  0  0  0  0  0  0  0
  -24.5851   -5.3194  -25.2404 C   0  0  0  0  0  0  0  0  0  0  0  0
  -20.3297   -4.2390  -34.0683 C   0  0  0  0  0  0  0  0  0  0  0  0
  -19.9088   -4.9258  -35.2096 C   0  0  0  0  0  0  0  0  0  0  0  0
  -20.7303   -6.3378  -32.9008 C   0  0  0  0  0  0  0  0  0  0  0  0
  -23.3753   -3.7838  -23.8207 C   0  0  0  0  0  0  0  0  0  0  0  0
  -23.4613   -4.5299  -24.9961 C   0  0  0  0  0  0  0  0  0  0  0  0
  -20.7381   -4.9409  -32.9205 C   0  0  0  0  0  0  0  0  0  0  0  0
  -19.9105   -6.3048  -35.1641 C   0  0  0  0  0  0  0  0  0  0  0  0
  -20.3102   -6.9919  -34.0406 C   0  0  0  0  0  0  0  0  0  0  0  0
  -20.1551   -4.8389  -26.5663 C   0  0  0  0  0  0  0  0  0  0  0  0
  -20.4229   -4.4375  -27.8459 C   0  0  0  0  0  0  0  0  0  0  0  0
  -18.2786   -4.8441  -28.0487 C   0  0  0  0  0  0  0  0  0  0  0  0
  -21.1298   -4.9304  -25.5208 C   0  0  0  0  0  0  0  0  0  0  0  0
  -22.7581   -4.0353  -27.2774 C   0  0  0  0  0  0  0  0  0  0  0  0
  -21.5944   -4.7469  -30.5597 C   0  0  0  0  0  0  0  0  0  0  0  0
  -19.7442   -8.4258  -35.5590 C   0  0  0  0  0  0  0  0  0  0  0  0
  -22.1836   -2.9294  -23.5326 C   0  0  0  0  0  0  0  0  0  0  0  0
  -15.7483   -3.8149  -27.8223 C   0  0  0  0  0  0  0  0  0  0  0  0
  -21.9535   -3.6290  -29.5999 C   0  0  0  0  0  0  0  0  0  0  0  0
  -19.3435   -4.4389  -28.7077 N   0  0  0  0  0  0  0  0  0  0  0  0
  -22.4231   -4.4997  -25.9495 N   0  0  0  0  0  0  0  0  0  0  0  0
  -21.7053   -4.0545  -28.2260 N   0  0  0  0  0  0  0  0  0  0  0  0
  -21.1601   -4.2247  -31.7751 N   0  0  0  0  0  0  0  0  0  0  0  0
  -20.8824   -5.3272  -24.3830 O   0  0  0  0  0  0  0  0  0  0  0  0
  -23.9010   -3.6574  -27.5616 O   0  0  0  0  0  0  0  0  0  0  0  0
  -21.6841   -5.9301  -30.2481 O   0  0  0  0  0  0  0  0  0  0  0  0
  -19.5352   -7.1375  -36.1729 O   0  0  0  0  0  0  0  0  0  0  0  0
  -20.2354   -8.3407  -34.2055 O   0  0  0  0  0  0  0  0  0  0  0  0
  -18.5130   -5.2396  -26.3920 S   0  0  0  0  0  0  0  0  0  0  0  0
  -16.7177   -4.9669  -28.8302 S   0  0  0  0  0  0  0  0  0  0  0  0
  -26.3441   -4.6506  -22.4086 H   0  0  0  0  0  0  0  0  0  0  0  0
  -26.4975   -5.9781  -24.4991 H   0  0  0  0  0  0  0  0  0  0  0  0
  -24.3555   -3.2499  -21.9707 H   0  0  0  0  0  0  0  0  0  0  0  0
  -24.6643   -5.9051  -26.1526 H   0  0  0  0  0  0  0  0  0  0  0  0
  -20.3375   -3.1515  -34.0774 H   0  0  0  0  0  0  0  0  0  0  0  0
  -19.5926   -4.3888  -36.0965 H   0  0  0  0  0  0  0  0  0  0  0  0
  -21.0427   -6.8931  -32.0226 H   0  0  0  0  0  0  0  0  0  0  0  0
  -20.4688   -8.9876  -36.1603 H   0  0  0  0  0  0  0  0  0  0  0  0
  -18.7935   -8.9710  -35.5540 H   0  0  0  0  0  0  0  0  0  0  0  0
  -21.4264   -3.5059  -22.9894 H   0  0  0  0  0  0  0  0  0  0  0  0
  -21.7365   -2.5490  -24.4589 H   0  0  0  0  0  0  0  0  0  0  0  0
  -22.4596   -2.0566  -22.9286 H   0  0  0  0  0  0  0  0  0  0  0  0
  -14.7199   -3.7742  -28.1895 H   0  0  0  0  0  0  0  0  0  0  0  0
  -15.7422   -4.1473  -26.7813 H   0  0  0  0  0  0  0  0  0  0  0  0
  -16.1867   -2.8154  -27.8758 H   0  0  0  0  0  0  0  0  0  0  0  0
  -23.0097   -3.3666  -29.7164 H   0  0  0  0  0  0  0  0  0  0  0  0
  -21.3437   -2.7504  -29.8327 H   0  0  0  0  0  0  0  0  0  0  0  0
  -21.1382   -3.2110  -31.8643 H   0  0  0  0  0  0  0  0  0  0  0  0
  1  2  2  0  0  0  0
  1  3  1  0  0  0  0
  2  4  1  0  0  0  0
  3  8  2  0  0  0  0
  4  9  2  0  0  0  0
  5  6  1  0  0  0  0
  5 10  2  0  0  0  0
  6 11  2  0  0  0  0
  7 10  1  0  0  0  0
  7 12  2  0  0  0  0
  8  9  1  0  0  0  0
  8 20  1  0  0  0  0
  9 24  1  0  0  0  0
 10 26  1  0  0  0  0
 11 12  1  0  0  0  0
 11 30  1  0  0  0  0
 12 31  1  0  0  0  0
 13 14  2  0  0  0  0
 13 16  1  0  0  0  0
 13 32  1  0  0  0  0
 14 23  1  0  0  0  0
 14 25  1  0  0  0  0
 15 23  2  0  0  0  0
 15 32  1  0  0  0  0
 15 33  1  0  0  0  0
 16 24  1  0  0  0  0
 16 27  2  0  0  0  0
 17 24  1  0  0  0  0
 17 25  1  0  0  0  0
 17 28  2  0  0  0  0
 18 22  1  0  0  0  0
 18 26  1  0  0  0  0
 18 29  2  0  0  0  0
 19 30  1  0  0  0  0
 19 31  1  0  0  0  0
 21 33  1  0  0  0  0
 22 25  1  0  0  0  0
  1 34  1  0  0  0  0
  2 35  1  0  0  0  0
  3 36  1  0  0  0  0
  4 37  1  0  0  0  0
  5 38  1  0  0  0  0
  6 39  1  0  0  0  0
  7 40  1  0  0  0  0
 19 41  1  0  0  0  0
 19 42  1  0  0  0  0
 20 43  1  0  0  0  0
 20 44  1  0  0  0  0
 20 45  1  0  0  0  0
 21 46  1  0  0  0  0
 21 47  1  0  0  0  0
 21 48  1  0  0  0  0
 22 49  1  0  0  0  0
 22 50  1  0  0  0  0
 26 51  1  0  0  0  0
M  END
> <SMILES>
CSc1nc2c(s1)C(=O)N(C(=O)N2CC(=O)Nc1ccc2c(c1)OCO2)c1ccccc1C

> <FORMATTED_ID>
H3D-014228

> <MOLFORMULA>
C22H18N4O5S2

> <Exact Mass>
482.07

> <XLogP>
4.87

> <TPSA_NOPS>
154.6

> <s_m_source_file>
ligprep_h3d.sdf

> <i_m_source_file_index>
5638

> <i_lp_mmshare_version>
55123

> <i_f3d_flags>
0

> <s_epik_input>
W0NIM11jMVtjSF1bY0hdW2NIXVtjSF1jMS1uKGMoPU8pYyhjMjMpc2MobjIpU1tDSDNdKWMoPU8pbjNbQ0gyXUMoPU8pW05IXWMoW2NIXVtjSF00KVtjSF1jKGM0NSlPW0NIMl1PNQ==

> <s_epik_cmdline>
J2VwaWtfcHl0aG9uJywgJy1waHQnLCAnMC41JywgJy1waCcsICc3LjUnLCAnLXRuJywgJzgnLCAnLW1hJywgJzUwMCcsICctaW1hZScsICc8aW5maWxlLm1hZT4nLCAnLW9tYWUnLCAnPG91dGZpbGUubWFlPic=

> <r_lp_tautomer_probability>
1

> <r_epik_Ionization_Penalty>
3.47135e-06

> <r_epik_Ionization_Penalty_Charging>
8.89402e-10

> <r_epik_Ionization_Penalty_Neutral>
3.47047e-06

> <r_epik_State_Penalty>
-0

> <r_epik_Charging_Adjusted_Penalty>
8.89402e-10

> <i_epik_Tot_Q>
0

> <i_epik_Tot_abs_Q>
0

> <s_epik_Chemistry_Notes>
This compound contains an acetal/aminal-like group ( X-CH(R)-Y where X, Y are N, S, or O) that may be acid/base labile, releasing an aldehyde.

> <s_lp_Force_Field>
S-OPLS

> <r_lp_Energy>
66.5488

> <b_lp_Chiralities_Consistent>
1

> <s_lp_Variant>
ligprep_h3d.sdf:5638-1

> <ROCS_ShapeQuery>
_7L13

> <ROCS_TanimotoCombo>
0.830 

> <ROCS_ShapeTanimoto>
0.673 

> <ROCS_ColorTanimoto>
0.157 

> <ROCS_RefTversky>
0.776 

> <ROCS_RefColorTversky>
0.325 

> <ROCS_RefTverskyCombo>
1.101 

> <ROCS_FitTversky>
0.836 

> <ROCS_FitColorTversky>
0.233 

> <ROCS_FitTverskyCombo>
1.068 

> <ROCS_ColorScore>
-2.990

> <ROCS_Overlap>
1284.003

> <ROCS_Rank>
416                 

$$$$
ligprep_h3d.sdf:5332_1024
  -OEChem-08212117123D

 64 69  0     0  0  0  0  0  0999 V2000
  -19.3052   -6.0058  -36.1663 C   0  0  0  0  0  0  0  0  0  0  0  0
  -19.8314   -7.1743  -35.6158 C   0  0  0  0  0  0  0  0  0  0  0  0
  -19.4100   -4.7996  -35.4734 C   0  0  0  0  0  0  0  0  0  0  0  0
  -20.4625   -7.1369  -34.3724 C   0  0  0  0  0  0  0  0  0  0  0  0
  -20.0411   -4.7622  -34.2301 C   0  0  0  0  0  0  0  0  0  0  0  0
  -22.9947   -4.2286  -28.7923 C   0  0  0  0  0  0  0  0  0  0  0  0
  -20.2744   -4.8288  -29.2072 C   0  0  0  0  0  0  0  0  0  0  0  0
  -14.7791   -6.1587  -26.0290 C   0  0  0  0  0  0  0  0  0  0  0  0
  -14.3126   -5.0295  -25.4085 C   0  0  0  0  0  0  0  0  0  0  0  0
  -22.1204   -4.3616  -27.7205 C   0  0  0  0  0  0  0  0  0  0  0  0
  -20.5674   -5.9307  -33.6796 C   0  0  0  0  0  0  0  0  0  0  0  0
  -20.7660   -4.6580  -27.9180 C   0  0  0  0  0  0  0  0  0  0  0  0
  -22.4979   -4.3907  -30.0849 C   0  0  0  0  0  0  0  0  0  0  0  0
  -21.1461   -4.6903  -30.2909 C   0  0  0  0  0  0  0  0  0  0  0  0
  -16.4666   -4.7367  -25.8078 C   0  0  0  0  0  0  0  0  0  0  0  0
  -17.8635   -4.2400  -25.9301 C   0  0  0  0  0  0  0  0  0  0  0  0
  -18.2909   -6.3803  -26.9947 C   0  0  0  0  0  0  0  0  0  0  0  0
  -17.0193   -6.8056  -26.8709 C   0  0  0  0  0  0  0  0  0  0  0  0
  -18.7557   -5.0649  -26.5203 C   0  0  0  0  0  0  0  0  0  0  0  0
  -23.5497   -2.9357  -24.3938 C   0  0  0  0  0  0  0  0  0  0  0  0
  -23.6648   -5.4566  -24.3326 C   0  0  0  0  0  0  0  0  0  0  0  0
  -23.1685   -2.9811  -25.8715 C   0  0  0  0  0  0  0  0  0  0  0  0
  -23.2424   -5.5156  -25.8004 C   0  0  0  0  0  0  0  0  0  0  0  0
  -20.9807   -4.3025  -25.6485 C   0  0  0  0  0  0  0  0  0  0  0  0
  -24.3818   -4.1515  -23.9961 C   0  0  0  0  0  0  0  0  0  0  0  0
  -22.4266   -4.2801  -26.2434 C   0  0  0  0  0  0  0  0  0  0  0  0
  -23.4799   -2.9599  -31.7110 C   0  0  0  0  0  0  0  0  0  0  0  0
  -21.2464   -5.8897  -32.3421 C   0  0  0  0  0  0  0  0  0  0  0  0
  -16.1218   -5.9539  -26.2679 N   0  0  0  0  0  0  0  0  0  0  0  0
  -15.3775   -4.1677  -25.2845 N   0  3  0  0  0  0  0  0  0  0  0  0
  -20.0614   -4.7495  -26.7020 N   0  0  0  0  0  0  0  0  0  0  0  0
  -24.6329   -4.0915  -22.5961 O   0  0  0  0  0  0  0  0  0  0  0  0
  -23.3439   -4.2619  -31.1459 O   0  0  0  0  0  0  0  0  0  0  0  0
  -20.6640   -4.8525  -31.5563 O   0  0  0  0  0  0  0  0  0  0  0  0
  -18.8126   -6.0354  -37.1338 H   0  0  0  0  0  0  0  0  0  0  0  0
  -19.7489   -8.1137  -36.1546 H   0  0  0  0  0  0  0  0  0  0  0  0
  -18.9994   -3.8898  -35.9013 H   0  0  0  0  0  0  0  0  0  0  0  0
  -20.8697   -8.0523  -33.9513 H   0  0  0  0  0  0  0  0  0  0  0  0
  -20.1182   -3.8179  -33.6976 H   0  0  0  0  0  0  0  0  0  0  0  0
  -24.0461   -4.0131  -28.6302 H   0  0  0  0  0  0  0  0  0  0  0  0
  -19.2293   -5.0609  -29.3870 H   0  0  0  0  0  0  0  0  0  0  0  0
  -14.3365   -7.0874  -26.3360 H   0  0  0  0  0  0  0  0  0  0  0  0
  -13.3649   -4.7025  -25.0289 H   0  0  0  0  0  0  0  0  0  0  0  0
  -18.1185   -3.2574  -25.5529 H   0  0  0  0  0  0  0  0  0  0  0  0
  -19.0219   -7.0308  -27.4667 H   0  0  0  0  0  0  0  0  0  0  0  0
  -16.6679   -7.7693  -27.2159 H   0  0  0  0  0  0  0  0  0  0  0  0
  -22.6503   -2.8762  -23.7677 H   0  0  0  0  0  0  0  0  0  0  0  0
  -24.1145   -2.0193  -24.1829 H   0  0  0  0  0  0  0  0  0  0  0  0
  -24.3209   -6.3055  -24.1036 H   0  0  0  0  0  0  0  0  0  0  0  0
  -22.7949   -5.5808  -23.6762 H   0  0  0  0  0  0  0  0  0  0  0  0
  -24.0871   -2.8885  -26.4657 H   0  0  0  0  0  0  0  0  0  0  0  0
  -22.5600   -2.1022  -26.1196 H   0  0  0  0  0  0  0  0  0  0  0  0
  -22.6747   -6.4387  -25.9757 H   0  0  0  0  0  0  0  0  0  0  0  0
  -24.1499   -5.5977  -26.4141 H   0  0  0  0  0  0  0  0  0  0  0  0
  -20.6738   -3.2970  -25.3309 H   0  0  0  0  0  0  0  0  0  0  0  0
  -20.9033   -4.9540  -24.7710 H   0  0  0  0  0  0  0  0  0  0  0  0
  -25.3495   -4.1152  -24.5104 H   0  0  0  0  0  0  0  0  0  0  0  0
  -24.1821   -2.9965  -32.5475 H   0  0  0  0  0  0  0  0  0  0  0  0
  -22.5044   -2.6075  -32.0555 H   0  0  0  0  0  0  0  0  0  0  0  0
  -23.8621   -2.2789  -30.9470 H   0  0  0  0  0  0  0  0  0  0  0  0
  -22.3185   -5.6947  -32.4529 H   0  0  0  0  0  0  0  0  0  0  0  0
  -21.1304   -6.8450  -31.8189 H   0  0  0  0  0  0  0  0  0  0  0  0
  -15.3411   -3.2441  -24.8620 H   0  0  0  0  0  0  0  0  0  0  0  0
  -25.1615   -4.8744  -22.3748 H   0  0  0  0  0  0  0  0  0  0  0  0
  1  2  2  0  0  0  0
  1  3  1  0  0  0  0
  2  4  1  0  0  0  0
  3  5  2  0  0  0  0
  4 11  2  0  0  0  0
  5 11  1  0  0  0  0
  6 10  1  0  0  0  0
  6 13  2  0  0  0  0
  7 12  1  0  0  0  0
  7 14  2  0  0  0  0
  8  9  2  0  0  0  0
  8 29  1  0  0  0  0
  9 30  1  0  0  0  0
 10 12  2  0  0  0  0
 10 26  1  0  0  0  0
 11 28  1  0  0  0  0
 12 31  1  0  0  0  0
 13 14  1  0  0  0  0
 13 33  1  0  0  0  0
 14 34  1  0  0  0  0
 15 16  1  0  0  0  0
 15 29  1  0  0  0  0
 15 30  2  0  0  0  0
 16 19  2  0  0  0  0
 17 18  2  0  0  0  0
 17 19  1  0  0  0  0
 18 29  1  0  0  0  0
 19 31  1  0  0  0  0
 20 22  1  0  0  0  0
 20 25  1  0  0  0  0
 21 23  1  0  0  0  0
 21 25  1  0  0  0  0
 22 26  1  0  0  0  0
 23 26  1  0  0  0  0
 24 26  1  0  0  0  0
 24 31  1  0  0  0  0
 25 32  1  0  0  0  0
 27 33  1  0  0  0  0
 28 34  1  0  0  0  0
  1 35  1  0  0  0  0
  2 36  1  0  0  0  0
  3 37  1  0  0  0  0
  4 38  1  0  0  0  0
  5 39  1  0  0  0  0
  6 40  1  0  0  0  0
  7 41  1  0  0  0  0
  8 42  1  0  0  0  0
  9 43  1  0  0  0  0
 16 44  1  0  0  0  0
 17 45  1  0  0  0  0
 18 46  1  0  0  0  0
 20 47  1  0  0  0  0
 20 48  1  0  0  0  0
 21 49  1  0  0  0  0
 21 50  1  0  0  0  0
 22 51  1  0  0  0  0
 22 52  1  0  0  0  0
 23 53  1  0  0  0  0
 23 54  1  0  0  0  0
 24 55  1  0  0  0  0
 24 56  1  0  0  0  0
 25 57  1  0  0  0  0
 27 58  1  0  0  0  0
 27 59  1  0  0  0  0
 27 60  1  0  0  0  0
 28 61  1  0  0  0  0
 28 62  1  0  0  0  0
 30 63  1  0  0  0  0
 32 64  1  0  0  0  0
M  CHG  1  30   1
M  END
> <SMILES>
COc1cc2c(cc1OCc1ccccc1)N(CC12CCC(O)CC1)c1ccn2ccnc2c1

> <FORMATTED_ID>
H3D-014936

> <MOLFORMULA>
C28H29N3O3

> <Exact Mass>
455.22

> <XLogP>
6.35

> <TPSA_NOPS>
59.2

> <s_m_source_file>
ligprep_h3d.sdf

> <i_m_source_file_index>
5332

> <i_lp_mmshare_version>
55123

> <i_f3d_flags>
0

> <s_epik_input>
W2NIXTFbY0hdW2NIXVtjSF1bY0hdYzFbQ0gyXU9jKGMoW2NIXTIpT1tDSDNdKVtjSF1jKGMyW0NAXTM0W0NIMl1bQ0gyXVtDQEhdKFtPSF0pW0NIMl1bQ0gyXTQpTihbQ0gyXTMpYyhbY0hdW2NIXTUpW2NIXWMobjU2KW5bY0hdW2NIXTY=

> <s_epik_cmdline>
J2VwaWtfcHl0aG9uJywgJy1waHQnLCAnMC41JywgJy1waCcsICc3LjUnLCAnLXRuJywgJzgnLCAnLW1hJywgJzUwMCcsICctaW1hZScsICc8aW5maWxlLm1hZT4nLCAnLW9tYWUnLCAnPG91dGZpbGUubWFlPic=

> <r_lp_tautomer_probability>
1

> <r_epik_Ionization_Penalty>
0.318799

> <r_epik_Ionization_Penalty_Charging>
0

> <r_epik_Ionization_Penalty_Neutral>
0.318799

> <r_epik_State_Penalty>
0.313235

> <r_epik_Charging_Adjusted_Penalty>
0.313235

> <i_epik_Tot_Q>
1

> <i_epik_Tot_abs_Q>
1

> <s_lp_Force_Field>
S-OPLS

> <r_lp_Energy>
60.6994

> <b_lp_Chiralities_Consistent>
1

> <s_lp_Variant>
ligprep_h3d.sdf:5332-1

> <ROCS_ShapeQuery>
_7L13

> <ROCS_TanimotoCombo>
0.763 

> <ROCS_ShapeTanimoto>
0.656 

> <ROCS_ColorTanimoto>
0.108 

> <ROCS_RefTversky>
0.776 

> <ROCS_RefColorTversky>
0.223 

> <ROCS_RefTverskyCombo>
0.999 

> <ROCS_FitTversky>
0.809 

> <ROCS_FitColorTversky>
0.172 

> <ROCS_FitTverskyCombo>
0.980 

> <ROCS_ColorScore>
-2.042

> <ROCS_Overlap>
1286.124

> <ROCS_Rank>
417                 

$$$$
ligprep_h3d.sdf:1283_1231
  -OEChem-08212117123D

 65 69  0     1  0  0  0  0  0999 V2000
  -20.1629   -3.7813  -32.2505 C   0  0  0  0  0  0  0  0  0  0  0  0
  -20.6849   -6.1354  -32.0999 C   0  0  0  0  0  0  0  0  0  0  0  0
  -19.6368   -3.9796  -33.5270 C   0  0  0  0  0  0  0  0  0  0  0  0
  -20.1588   -6.3338  -33.3764 C   0  0  0  0  0  0  0  0  0  0  0  0
  -16.6453   -4.8097  -26.6816 C   0  0  0  0  0  0  0  0  0  0  0  0
  -23.1186   -4.1436  -28.7865 C   0  0  0  0  0  0  0  0  0  0  0  0
  -20.7421   -4.4529  -25.3913 C   0  0  0  0  0  0  0  0  0  0  0  0
  -17.0919   -6.1419  -26.5945 C   0  0  0  0  0  0  0  0  0  0  0  0
  -20.9682   -4.5570  -27.7961 C   0  0  0  0  0  0  0  0  0  0  0  0
  -20.6870   -4.8592  -31.5369 C   0  0  0  0  0  0  0  0  0  0  0  0
  -21.2350   -4.6525  -30.2067 C   0  0  0  0  0  0  0  0  0  0  0  0
  -19.6348   -5.2558  -34.0900 C   0  0  0  0  0  0  0  0  0  0  0  0
  -22.5819   -4.3444  -30.0606 C   0  0  0  0  0  0  0  0  0  0  0  0
  -20.4281   -4.7590  -29.0776 C   0  0  0  0  0  0  0  0  0  0  0  0
  -22.3349   -4.2441  -27.6402 C   0  0  0  0  0  0  0  0  0  0  0  0
  -20.1788   -4.6580  -26.6426 C   0  0  0  0  0  0  0  0  0  0  0  0
  -22.0879   -4.1513  -25.3390 C   0  0  0  0  0  0  0  0  0  0  0  0
  -17.7975   -4.0626  -26.7114 C   0  0  0  0  0  0  0  0  0  0  0  0
  -18.7543   -7.9437  -35.8239 C   0  0  0  0  0  0  0  0  0  0  0  0
  -22.7403   -3.9263  -24.0605 C   0  0  0  0  0  0  0  0  0  0  0  0
  -20.5250   -8.2767  -37.3917 C   0  0  0  0  0  0  0  0  0  0  0  0
  -20.7008   -6.9346  -36.7032 C   0  0  0  0  0  0  0  0  0  0  0  0
  -19.5743   -9.0380  -36.4732 C   0  0  2  0  0  0  0  0  0  0  0  0
  -23.4930   -4.2167  -31.2400 C   0  0  0  0  0  0  0  0  0  0  0  0
  -18.9821   -5.0947  -29.3136 C   0  0  0  0  0  0  0  0  0  0  0  0
  -17.9923   -2.6019  -26.7974 C   0  0  0  0  0  0  0  0  0  0  0  0
  -24.8898   -4.0731  -22.7764 C   0  0  0  0  0  0  0  0  0  0  0  0
  -19.0720   -5.4680  -35.4547 C   0  0  0  0  0  0  0  0  0  0  0  0
  -18.4238   -6.2387  -26.5703 N   0  0  0  0  0  0  0  0  0  0  0  0
  -22.8843   -4.0445  -26.4272 N   0  0  0  0  0  0  0  0  0  0  0  0
  -18.8241   -4.9578  -26.6426 N   0  0  0  0  0  0  0  0  0  0  0  0
  -19.4472   -6.7496  -36.0113 N   0  0  0  0  0  0  0  0  0  0  0  0
  -24.0975   -4.2597  -23.9707 N   0  0  0  0  0  0  0  0  0  0  0  0
  -17.7118   -8.1246  -35.2125 O   0  0  0  0  0  0  0  0  0  0  0  0
  -22.1092   -3.4383  -23.1052 O   0  0  0  0  0  0  0  0  0  0  0  0
  -20.2969   -9.7121  -35.4641 O   0  0  0  0  0  0  0  0  0  0  0  0
  -20.1567   -2.7806  -31.8251 H   0  0  0  0  0  0  0  0  0  0  0  0
  -21.0904   -6.9856  -31.5564 H   0  0  0  0  0  0  0  0  0  0  0  0
  -19.2296   -3.1343  -34.0753 H   0  0  0  0  0  0  0  0  0  0  0  0
  -20.1618   -7.3315  -33.8076 H   0  0  0  0  0  0  0  0  0  0  0  0
  -15.6294   -4.4444  -26.7173 H   0  0  0  0  0  0  0  0  0  0  0  0
  -24.1764   -3.9028  -28.6868 H   0  0  0  0  0  0  0  0  0  0  0  0
  -20.1528   -4.5252  -24.4813 H   0  0  0  0  0  0  0  0  0  0  0  0
  -16.5021   -7.0461  -26.5474 H   0  0  0  0  0  0  0  0  0  0  0  0
  -21.4872   -8.8000  -37.4758 H   0  0  0  0  0  0  0  0  0  0  0  0
  -20.1212   -8.1756  -38.4052 H   0  0  0  0  0  0  0  0  0  0  0  0
  -20.8257   -6.1177  -37.4219 H   0  0  0  0  0  0  0  0  0  0  0  0
  -21.5361   -6.9427  -35.9965 H   0  0  0  0  0  0  0  0  0  0  0  0
  -18.9325   -9.7168  -36.9998 H   0  0  0  0  0  0  0  0  0  0  0  0
  -23.4998   -3.1828  -31.6016 H   0  0  0  0  0  0  0  0  0  0  0  0
  -23.1733   -4.8730  -32.0578 H   0  0  0  0  0  0  0  0  0  0  0  0
  -24.5180   -4.5048  -30.9790 H   0  0  0  0  0  0  0  0  0  0  0  0
  -18.8481   -6.1793  -29.3074 H   0  0  0  0  0  0  0  0  0  0  0  0
  -18.6451   -4.6983  -30.2754 H   0  0  0  0  0  0  0  0  0  0  0  0
  -18.3508   -4.6520  -28.5380 H   0  0  0  0  0  0  0  0  0  0  0  0
  -18.0587   -2.2712  -27.8468 H   0  0  0  0  0  0  0  0  0  0  0  0
  -18.9135   -2.2765  -26.2846 H   0  0  0  0  0  0  0  0  0  0  0  0
  -17.1663   -2.0457  -26.3221 H   0  0  0  0  0  0  0  0  0  0  0  0
  -24.8954   -5.0039  -22.1903 H   0  0  0  0  0  0  0  0  0  0  0  0
  -24.4569   -3.2622  -22.1723 H   0  0  0  0  0  0  0  0  0  0  0  0
  -25.9204   -3.8108  -23.0576 H   0  0  0  0  0  0  0  0  0  0  0  0
  -19.4186   -4.6916  -36.1512 H   0  0  0  0  0  0  0  0  0  0  0  0
  -17.9743   -5.4221  -35.4496 H   0  0  0  0  0  0  0  0  0  0  0  0
  -24.5807   -4.5953  -24.7974 H   0  0  0  0  0  0  0  0  0  0  0  0
  -20.8213  -10.4144  -35.8932 H   0  0  0  0  0  0  0  0  0  0  0  0
  1  3  1  0  0  0  0
  1 10  2  0  0  0  0
  2  4  2  0  0  0  0
  2 10  1  0  0  0  0
  3 12  2  0  0  0  0
  4 12  1  0  0  0  0
  5  8  1  0  0  0  0
  5 18  2  0  0  0  0
  6 13  2  0  0  0  0
  6 15  1  0  0  0  0
  7 16  1  0  0  0  0
  7 17  2  0  0  0  0
  8 29  2  0  0  0  0
  9 14  1  0  0  0  0
  9 15  1  0  0  0  0
  9 16  2  0  0  0  0
 10 11  1  0  0  0  0
 11 13  1  0  0  0  0
 11 14  2  0  0  0  0
 12 28  1  0  0  0  0
 13 24  1  0  0  0  0
 14 25  1  0  0  0  0
 15 30  2  0  0  0  0
 16 31  1  0  0  0  0
 17 20  1  0  0  0  0
 17 30  1  0  0  0  0
 18 26  1  0  0  0  0
 18 31  1  0  0  0  0
 19 23  1  0  0  0  0
 19 32  1  0  0  0  0
 19 34  2  0  0  0  0
 20 33  1  0  0  0  0
 20 35  2  0  0  0  0
 21 22  1  0  0  0  0
 21 23  1  0  0  0  0
 22 32  1  0  0  0  0
 23 36  1  0  0  0  0
 27 33  1  0  0  0  0
 28 32  1  0  0  0  0
 29 31  1  0  0  0  0
  1 37  1  0  0  0  0
  2 38  1  0  0  0  0
  3 39  1  0  0  0  0
  4 40  1  0  0  0  0
  5 41  1  0  0  0  0
  6 42  1  0  0  0  0
  7 43  1  0  0  0  0
  8 44  1  0  0  0  0
 21 45  1  0  0  0  0
 21 46  1  0  0  0  0
 22 47  1  0  0  0  0
 22 48  1  0  0  0  0
 23 49  1  0  0  0  0
 24 50  1  0  0  0  0
 24 51  1  0  0  0  0
 24 52  1  0  0  0  0
 25 53  1  0  0  0  0
 25 54  1  0  0  0  0
 25 55  1  0  0  0  0
 26 56  1  0  0  0  0
 26 57  1  0  0  0  0
 26 58  1  0  0  0  0
 27 59  1  0  0  0  0
 27 60  1  0  0  0  0
 27 61  1  0  0  0  0
 28 62  1  0  0  0  0
 28 63  1  0  0  0  0
 33 64  1  0  0  0  0
 36 65  1  0  0  0  0
M  END
> <SMILES>
CNC(=O)c1cc(c2c(c(c(cc2n1)C)-c1ccc(cc1)CN1CC[C@H](O)C1=O)C)-n1nccc1C

> <FORMATTED_ID>
H3D-008606

> <MOLFORMULA>
C28H29N5O3

> <Exact Mass>
483.23

> <XLogP>
3.51

> <TPSA_NOPS>
100.3

> <s_m_source_file>
ligprep_h3d.sdf

> <i_m_source_file_index>
1283

> <i_lp_mmshare_version>
55123

> <i_f3d_flags>
0

> <s_epik_input>
W0NIM11jMVtjSF1bY0hdbm4xLWMyW2NIXWMoQyg9TylbTkhdW0NIM10pbmMoYzIzKVtjSF1jKFtDSDNdKWMoYzNbQ0gzXSktYzRbY0hdW2NIXWMoW2NIXVtjSF00KVtDSDJdTjVbQ0gyXVtDSDJdW0NASF0oW09IXSlDNT1P

> <s_epik_cmdline>
J2VwaWtfcHl0aG9uJywgJy1waHQnLCAnMC41JywgJy1waCcsICc3LjUnLCAnLXRuJywgJzgnLCAnLW1hJywgJzUwMCcsICctaW1hZScsICc8aW5maWxlLm1hZT4nLCAnLW9tYWUnLCAnPG91dGZpbGUubWFlPic=

> <r_lp_tautomer_probability>
1

> <r_epik_Ionization_Penalty>
0.000259687

> <r_epik_Ionization_Penalty_Charging>
0

> <r_epik_Ionization_Penalty_Neutral>
0.000259687

> <r_epik_State_Penalty>
-0

> <r_epik_Charging_Adjusted_Penalty>
0

> <i_epik_Tot_Q>
0

> <i_epik_Tot_abs_Q>
0

> <s_lp_Force_Field>
S-OPLS

> <r_lp_Energy>
46.8843

> <b_lp_Chiralities_Consistent>
1

> <s_lp_Variant>
ligprep_h3d.sdf:1283-1

> <ROCS_ShapeQuery>
_7L13

> <ROCS_TanimotoCombo>
0.734 

> <ROCS_ShapeTanimoto>
0.628 

> <ROCS_ColorTanimoto>
0.106 

> <ROCS_RefTversky>
0.776 

> <ROCS_RefColorTversky>
0.221 

> <ROCS_RefTverskyCombo>
0.997 

> <ROCS_FitTversky>
0.767 

> <ROCS_FitColorTversky>
0.171 

> <ROCS_FitTverskyCombo>
0.937 

> <ROCS_ColorScore>
-2.022

> <ROCS_Overlap>
1289.872

> <ROCS_Rank>
418                 

$$$$
ligprep_h3d.sdf:4724_1241
  -OEChem-08212117123D

 60 64  0     1  0  0  0  0  0999 V2000
  -15.1054   -5.0095  -25.2525 C   0  0  0  0  0  0  0  0  0  0  0  0
  -15.7142   -6.1452  -25.7866 C   0  0  0  0  0  0  0  0  0  0  0  0
  -15.7754   -3.7862  -25.2686 C   0  0  0  0  0  0  0  0  0  0  0  0
  -19.4147   -5.5609  -32.8888 C   0  0  0  0  0  0  0  0  0  0  0  0
  -21.2460   -5.0648  -34.3846 C   0  0  0  0  0  0  0  0  0  0  0  0
  -16.9929   -6.0575  -26.3369 C   0  0  0  0  0  0  0  0  0  0  0  0
  -17.0541   -3.6985  -25.8189 C   0  0  0  0  0  0  0  0  0  0  0  0
  -18.8370   -6.3723  -33.8651 C   0  0  0  0  0  0  0  0  0  0  0  0
  -20.6682   -5.8763  -35.3610 C   0  0  0  0  0  0  0  0  0  0  0  0
  -24.3570   -4.6610  -22.5322 C   0  0  0  0  0  0  0  0  0  0  0  0
  -25.9490   -4.9255  -24.2792 C   0  0  0  0  0  0  0  0  0  0  0  0
  -20.6193   -4.9071  -33.1485 C   0  0  0  0  0  0  0  0  0  0  0  0
  -17.6629   -4.8342  -26.3531 C   0  0  0  0  0  0  0  0  0  0  0  0
  -19.4637   -6.5300  -35.1012 C   0  0  0  0  0  0  0  0  0  0  0  0
  -25.6239   -5.0641  -22.9395 C   0  0  0  0  0  0  0  0  0  0  0  0
  -23.4666   -4.1392  -23.4639 C   0  0  0  0  0  0  0  0  0  0  0  0
  -23.8882   -4.0423  -24.7802 C   0  0  0  0  0  0  0  0  0  0  0  0
  -22.1800   -4.8023  -31.2042 C   0  0  0  0  0  0  0  0  0  0  0  0
  -22.6988   -5.4769  -28.8744 C   0  0  0  0  0  0  0  0  0  0  0  0
  -19.7881   -5.7257  -27.5071 C   0  0  0  0  0  0  0  0  0  0  0  0
  -19.9761   -3.7717  -26.7572 C   0  0  0  0  0  0  0  0  0  0  0  0
  -20.7472   -4.0764  -29.2434 C   0  0  0  0  0  0  0  0  0  0  0  0
  -22.2578   -4.9371  -27.5176 C   0  0  1  0  0  0  0  0  0  0  0  0
  -20.7950   -4.5768  -27.7959 C   0  0  0  0  0  0  0  0  0  0  0  0
  -21.2403   -4.0341  -32.0990 C   0  0  0  0  0  0  0  0  0  0  0  0
  -23.0722   -3.7094  -27.1145 C   0  0  0  0  0  0  0  0  0  0  0  0
  -25.1108   -4.4232  -25.2134 N   0  0  0  0  0  0  0  0  0  0  0  0
  -18.9481   -4.7457  -26.9059 N   0  0  0  0  0  0  0  0  0  0  0  0
  -21.8785   -4.7725  -29.8519 N   0  0  0  0  0  0  0  0  0  0  0  0
  -22.9854   -3.5150  -25.7065 N   0  0  0  0  0  0  0  0  0  0  0  0
  -23.1394   -5.4089  -31.6837 O   0  0  0  0  0  0  0  0  0  0  0  0
  -18.8991   -7.3209  -36.0543 O   0  0  0  0  0  0  0  0  0  0  0  0
  -26.5006   -5.5695  -22.0646 F   0  0  0  0  0  0  0  0  0  0  0  0
  -22.2431   -3.7477  -23.0855 F   0  0  0  0  0  0  0  0  0  0  0  0
  -14.1095   -5.0778  -24.8242 H   0  0  0  0  0  0  0  0  0  0  0  0
  -15.1925   -7.0974  -25.7740 H   0  0  0  0  0  0  0  0  0  0  0  0
  -15.3011   -2.9018  -24.8527 H   0  0  0  0  0  0  0  0  0  0  0  0
  -18.9196   -5.4438  -31.9285 H   0  0  0  0  0  0  0  0  0  0  0  0
  -22.1848   -4.5594  -34.5958 H   0  0  0  0  0  0  0  0  0  0  0  0
  -17.4584   -6.9483  -26.7506 H   0  0  0  0  0  0  0  0  0  0  0  0
  -17.5667   -2.7399  -25.8258 H   0  0  0  0  0  0  0  0  0  0  0  0
  -17.8982   -6.8788  -33.6569 H   0  0  0  0  0  0  0  0  0  0  0  0
  -21.1610   -5.9948  -36.3219 H   0  0  0  0  0  0  0  0  0  0  0  0
  -24.0646   -4.7535  -21.4908 H   0  0  0  0  0  0  0  0  0  0  0  0
  -26.9243   -5.2253  -24.6481 H   0  0  0  0  0  0  0  0  0  0  0  0
  -22.4580   -6.5424  -28.9685 H   0  0  0  0  0  0  0  0  0  0  0  0
  -23.7645   -5.3458  -29.0866 H   0  0  0  0  0  0  0  0  0  0  0  0
  -20.1222   -6.4820  -26.7881 H   0  0  0  0  0  0  0  0  0  0  0  0
  -19.3301   -6.2135  -28.3717 H   0  0  0  0  0  0  0  0  0  0  0  0
  -19.6641   -2.7678  -27.0560 H   0  0  0  0  0  0  0  0  0  0  0  0
  -20.3863   -3.7550  -25.7420 H   0  0  0  0  0  0  0  0  0  0  0  0
  -20.9404   -3.0005  -29.3094 H   0  0  0  0  0  0  0  0  0  0  0  0
  -19.8160   -4.3107  -29.7670 H   0  0  0  0  0  0  0  0  0  0  0  0
  -22.3589   -5.7008  -26.7386 H   0  0  0  0  0  0  0  0  0  0  0  0
  -20.4648   -3.5795  -31.4801 H   0  0  0  0  0  0  0  0  0  0  0  0
  -21.7945   -3.2131  -32.5565 H   0  0  0  0  0  0  0  0  0  0  0  0
  -22.6542   -2.8565  -27.6463 H   0  0  0  0  0  0  0  0  0  0  0  0
  -24.1024   -3.8935  -27.4139 H   0  0  0  0  0  0  0  0  0  0  0  0
  -22.2166   -2.9554  -25.3283 H   0  0  0  0  0  0  0  0  0  0  0  0
  -19.4497   -7.3299  -36.8534 H   0  0  0  0  0  0  0  0  0  0  0  0
  1  2  2  0  0  0  0
  1  3  1  0  0  0  0
  2  6  1  0  0  0  0
  3  7  2  0  0  0  0
  4  8  1  0  0  0  0
  4 12  2  0  0  0  0
  5  9  2  0  0  0  0
  5 12  1  0  0  0  0
  6 13  2  0  0  0  0
  7 13  1  0  0  0  0
  8 14  2  0  0  0  0
  9 14  1  0  0  0  0
 10 15  1  0  0  0  0
 10 16  2  0  0  0  0
 11 15  2  0  0  0  0
 11 27  1  0  0  0  0
 12 25  1  0  0  0  0
 13 28  1  0  0  0  0
 14 32  1  0  0  0  0
 15 33  1  0  0  0  0
 16 17  1  0  0  0  0
 16 34  1  0  0  0  0
 17 27  2  0  0  0  0
 17 30  1  0  0  0  0
 18 25  1  0  0  0  0
 18 29  1  0  0  0  0
 18 31  2  0  0  0  0
 19 23  1  0  0  0  0
 19 29  1  0  0  0  0
 20 24  1  0  0  0  0
 20 28  1  0  0  0  0
 21 24  1  0  0  0  0
 21 28  1  0  0  0  0
 22 24  1  0  0  0  0
 22 29  1  0  0  0  0
 23 24  1  0  0  0  0
 23 26  1  0  0  0  0
 26 30  1  0  0  0  0
  1 35  1  0  0  0  0
  2 36  1  0  0  0  0
  3 37  1  0  0  0  0
  4 38  1  0  0  0  0
  5 39  1  0  0  0  0
  6 40  1  0  0  0  0
  7 41  1  0  0  0  0
  8 42  1  0  0  0  0
  9 43  1  0  0  0  0
 10 44  1  0  0  0  0
 11 45  1  0  0  0  0
 19 46  1  0  0  0  0
 19 47  1  0  0  0  0
 20 48  1  0  0  0  0
 20 49  1  0  0  0  0
 21 50  1  0  0  0  0
 21 51  1  0  0  0  0
 22 52  1  0  0  0  0
 22 53  1  0  0  0  0
 23 54  1  0  0  0  0
 25 55  1  0  0  0  0
 25 56  1  0  0  0  0
 26 57  1  0  0  0  0
 26 58  1  0  0  0  0
 30 59  1  0  0  0  0
 32 60  1  0  0  0  0
M  END
> <SMILES>
Oc1ccc(cc1)CC(=O)N1CC(CNc2ncc(cc2F)F)C2(C1)CN(C2)c1ccccc1

> <FORMATTED_ID>
H3D-006942

> <MOLFORMULA>
C26H26F2N4O2

> <Exact Mass>
464.2

> <XLogP>
3.12

> <TPSA_NOPS>
68.7

> <s_m_source_file>
ligprep_h3d.sdf

> <i_m_source_file_index>
4724

> <i_lp_mmshare_version>
55123

> <i_f3d_flags>
0

> <s_epik_input>
W09IXWMxW2NIXVtjSF1jKFtjSF1bY0hdMSlbQ0gyXUMoPU8pTihbQ0gyXTIpW0NIMl1bQ0BIXShbQ0gyXVtOSF1jM25bY0hdYyhGKVtjSF1jM0YpQzI0W0NIMl1OKFtDSDJdNCljNVtjSF1bY0hdW2NIXVtjSF1bY0hdNQ==

> <s_epik_cmdline>
J2VwaWtfcHl0aG9uJywgJy1waHQnLCAnMC41JywgJy1waCcsICc3LjUnLCAnLXRuJywgJzgnLCAnLW1hJywgJzUwMCcsICctaW1hZScsICc8aW5maWxlLm1hZT4nLCAnLW9tYWUnLCAnPG91dGZpbGUubWFlPic=

> <r_lp_tautomer_probability>
1

> <r_epik_Ionization_Penalty>
0.00414255

> <r_epik_Ionization_Penalty_Charging>
0

> <r_epik_Ionization_Penalty_Neutral>
0.00414255

> <r_epik_State_Penalty>
-0

> <r_epik_Charging_Adjusted_Penalty>
0

> <i_epik_Tot_Q>
0

> <i_epik_Tot_abs_Q>
0

> <s_lp_Force_Field>
S-OPLS

> <r_lp_Energy>
35.4349

> <b_lp_Chiralities_Consistent>
1

> <s_lp_Variant>
ligprep_h3d.sdf:4724-1

> <ROCS_ShapeQuery>
_7L13

> <ROCS_TanimotoCombo>
0.724 

> <ROCS_ShapeTanimoto>
0.663 

> <ROCS_ColorTanimoto>
0.060 

> <ROCS_RefTversky>
0.776 

> <ROCS_RefColorTversky>
0.120 

> <ROCS_RefTverskyCombo>
0.896 

> <ROCS_FitTversky>
0.820 

> <ROCS_FitColorTversky>
0.109 

> <ROCS_FitTverskyCombo>
0.929 

> <ROCS_ColorScore>
-1.084

> <ROCS_Overlap>
1284.972

> <ROCS_Rank>
419                 

$$$$
ligprep_h3d.sdf:700_634
  -OEChem-08212117123D

 69 73  0     0  0  0  0  0  0999 V2000
  -16.7148   -5.9266  -26.0433 C   0  0  0  0  0  0  0  0  0  0  0  0
  -22.7760   -4.4671  -28.8526 C   0  0  0  0  0  0  0  0  0  0  0  0
  -20.6777   -4.4172  -25.2658 C   0  0  0  0  0  0  0  0  0  0  0  0
  -16.5932   -4.5370  -26.2332 C   0  0  0  0  0  0  0  0  0  0  0  0
  -20.7028   -4.7216  -27.6640 C   0  0  0  0  0  0  0  0  0  0  0  0
  -22.1309   -4.7497  -30.0592 C   0  0  0  0  0  0  0  0  0  0  0  0
  -20.0537   -5.0058  -28.8775 C   0  0  0  0  0  0  0  0  0  0  0  0
  -22.0863   -4.4470  -27.6434 C   0  0  0  0  0  0  0  0  0  0  0  0
  -20.0079   -4.7012  -26.4472 C   0  0  0  0  0  0  0  0  0  0  0  0
  -20.7681   -5.0195  -30.0720 C   0  0  0  0  0  0  0  0  0  0  0  0
  -22.0316   -4.1613  -25.3455 C   0  0  0  0  0  0  0  0  0  0  0  0
  -18.0662   -6.1644  -26.1033 C   0  0  0  0  0  0  0  0  0  0  0  0
  -18.5226   -7.0581  -36.0872 C   0  0  0  0  0  0  0  0  0  0  0  0
  -22.7927   -3.8577  -24.1457 C   0  0  0  0  0  0  0  0  0  0  0  0
  -19.6257   -7.0220  -32.9378 C   0  0  0  0  0  0  0  0  0  0  0  0
  -19.9463   -4.6283  -33.6198 C   0  0  0  0  0  0  0  0  0  0  0  0
  -19.4536   -6.5751  -31.4855 C   0  0  0  0  0  0  0  0  0  0  0  0
  -19.7502   -4.2057  -32.1660 C   0  0  0  0  0  0  0  0  0  0  0  0
  -20.4744   -6.6787  -37.3534 C   0  0  0  0  0  0  0  0  0  0  0  0
  -20.6995   -6.1527  -35.9438 C   0  0  0  0  0  0  0  0  0  0  0  0
  -19.2004   -5.9300  -33.9204 C   0  0  0  0  0  0  0  0  0  0  0  0
  -22.9355   -4.7554  -31.3186 C   0  0  0  0  0  0  0  0  0  0  0  0
  -18.5861   -5.3082  -28.9793 C   0  0  0  0  0  0  0  0  0  0  0  0
  -18.8257   -7.4238  -25.9765 C   0  0  0  0  0  0  0  0  0  0  0  0
  -25.0347   -3.9783  -23.0278 C   0  0  0  0  0  0  0  0  0  0  0  0
  -25.5765   -5.2939  -22.4993 C   0  0  0  0  0  0  0  0  0  0  0  0
  -17.7733   -3.9344  -26.4014 N   0  0  0  0  0  0  0  0  0  0  0  0
  -22.7389   -4.1709  -26.4985 N   0  0  0  0  0  0  0  0  0  0  0  0
  -18.6492   -4.9502  -26.3174 N   0  0  0  0  0  0  0  0  0  0  0  0
  -19.1663   -7.2814  -37.3154 N   0  0  0  0  0  0  0  0  0  0  0  0
  -20.1384   -5.2975  -31.2646 N   0  0  0  0  0  0  0  0  0  0  0  0
  -19.4279   -6.3513  -35.2806 N   0  0  0  0  0  0  0  0  0  0  0  0
  -24.1422   -4.2318  -24.1360 N   0  0  0  0  0  0  0  0  0  0  0  0
  -17.3905   -7.4201  -35.7956 O   0  0  0  0  0  0  0  0  0  0  0  0
  -22.2565   -3.2717  -23.1876 O   0  0  0  0  0  0  0  0  0  0  0  0
  -26.3155   -5.9460  -23.5242 O   0  0  0  0  0  0  0  0  0  0  0  0
  -15.9306   -6.6526  -25.8856 H   0  0  0  0  0  0  0  0  0  0  0  0
  -23.8448   -4.2562  -28.8582 H   0  0  0  0  0  0  0  0  0  0  0  0
  -20.1628   -4.3939  -24.3095 H   0  0  0  0  0  0  0  0  0  0  0  0
  -15.6939   -3.9385  -26.2562 H   0  0  0  0  0  0  0  0  0  0  0  0
  -19.0130   -7.9131  -33.1090 H   0  0  0  0  0  0  0  0  0  0  0  0
  -20.6635   -7.3176  -33.1154 H   0  0  0  0  0  0  0  0  0  0  0  0
  -21.0091   -4.7358  -33.8376 H   0  0  0  0  0  0  0  0  0  0  0  0
  -19.5640   -3.8420  -34.2737 H   0  0  0  0  0  0  0  0  0  0  0  0
  -19.8489   -7.3381  -30.8034 H   0  0  0  0  0  0  0  0  0  0  0  0
  -18.3811   -6.4723  -31.2786 H   0  0  0  0  0  0  0  0  0  0  0  0
  -18.6939   -3.9479  -32.0157 H   0  0  0  0  0  0  0  0  0  0  0  0
  -20.3421   -3.3077  -31.9453 H   0  0  0  0  0  0  0  0  0  0  0  0
  -21.2082   -7.4361  -37.6416 H   0  0  0  0  0  0  0  0  0  0  0  0
  -20.4593   -5.8756  -38.0957 H   0  0  0  0  0  0  0  0  0  0  0  0
  -20.9544   -5.0889  -35.9360 H   0  0  0  0  0  0  0  0  0  0  0  0
  -21.4652   -6.7264  -35.4125 H   0  0  0  0  0  0  0  0  0  0  0  0
  -18.1234   -5.7612  -33.8329 H   0  0  0  0  0  0  0  0  0  0  0  0
  -22.9436   -3.7558  -31.7675 H   0  0  0  0  0  0  0  0  0  0  0  0
  -22.5239   -5.4637  -32.0475 H   0  0  0  0  0  0  0  0  0  0  0  0
  -23.9708   -5.0610  -31.1248 H   0  0  0  0  0  0  0  0  0  0  0  0
  -18.4204   -6.3839  -28.8756 H   0  0  0  0  0  0  0  0  0  0  0  0
  -18.1877   -4.9775  -29.9430 H   0  0  0  0  0  0  0  0  0  0  0  0
  -18.0270   -4.7844  -28.1982 H   0  0  0  0  0  0  0  0  0  0  0  0
  -19.1006   -7.6179  -24.9268 H   0  0  0  0  0  0  0  0  0  0  0  0
  -19.7563   -7.4072  -26.5691 H   0  0  0  0  0  0  0  0  0  0  0  0
  -18.2496   -8.2926  -26.3383 H   0  0  0  0  0  0  0  0  0  0  0  0
  -25.8427   -3.3291  -23.3798 H   0  0  0  0  0  0  0  0  0  0  0  0
  -24.4708   -3.4578  -22.2478 H   0  0  0  0  0  0  0  0  0  0  0  0
  -26.2536   -5.1099  -21.6594 H   0  0  0  0  0  0  0  0  0  0  0  0
  -24.7707   -5.9577  -22.1695 H   0  0  0  0  0  0  0  0  0  0  0  0
  -18.7377   -7.7683  -38.0962 H   0  0  0  0  0  0  0  0  0  0  0  0
  -24.5461   -4.6503  -24.9675 H   0  0  0  0  0  0  0  0  0  0  0  0
  -26.6425   -6.7783  -23.1466 H   0  0  0  0  0  0  0  0  0  0  0  0
  1  4  1  0  0  0  0
  1 12  2  0  0  0  0
  2  6  2  0  0  0  0
  2  8  1  0  0  0  0
  3  9  1  0  0  0  0
  3 11  2  0  0  0  0
  4 27  2  0  0  0  0
  5  7  1  0  0  0  0
  5  8  1  0  0  0  0
  5  9  2  0  0  0  0
  6 10  1  0  0  0  0
  6 22  1  0  0  0  0
  7 10  2  0  0  0  0
  7 23  1  0  0  0  0
  8 28  2  0  0  0  0
  9 29  1  0  0  0  0
 10 31  1  0  0  0  0
 11 14  1  0  0  0  0
 11 28  1  0  0  0  0
 12 24  1  0  0  0  0
 12 29  1  0  0  0  0
 13 30  1  0  0  0  0
 13 32  1  0  0  0  0
 13 34  2  0  0  0  0
 14 33  1  0  0  0  0
 14 35  2  0  0  0  0
 15 17  1  0  0  0  0
 15 21  1  0  0  0  0
 16 18  1  0  0  0  0
 16 21  1  0  0  0  0
 17 31  1  0  0  0  0
 18 31  1  0  0  0  0
 19 20  1  0  0  0  0
 19 30  1  0  0  0  0
 20 32  1  0  0  0  0
 21 32  1  0  0  0  0
 25 26  1  0  0  0  0
 25 33  1  0  0  0  0
 26 36  1  0  0  0  0
 27 29  1  0  0  0  0
  1 37  1  0  0  0  0
  2 38  1  0  0  0  0
  3 39  1  0  0  0  0
  4 40  1  0  0  0  0
 15 41  1  0  0  0  0
 15 42  1  0  0  0  0
 16 43  1  0  0  0  0
 16 44  1  0  0  0  0
 17 45  1  0  0  0  0
 17 46  1  0  0  0  0
 18 47  1  0  0  0  0
 18 48  1  0  0  0  0
 19 49  1  0  0  0  0
 19 50  1  0  0  0  0
 20 51  1  0  0  0  0
 20 52  1  0  0  0  0
 21 53  1  0  0  0  0
 22 54  1  0  0  0  0
 22 55  1  0  0  0  0
 22 56  1  0  0  0  0
 23 57  1  0  0  0  0
 23 58  1  0  0  0  0
 23 59  1  0  0  0  0
 24 60  1  0  0  0  0
 24 61  1  0  0  0  0
 24 62  1  0  0  0  0
 25 63  1  0  0  0  0
 25 64  1  0  0  0  0
 26 65  1  0  0  0  0
 26 66  1  0  0  0  0
 30 67  1  0  0  0  0
 33 68  1  0  0  0  0
 36 69  1  0  0  0  0
M  END
> <SMILES>
Cc1cc2nc(cc(c2c(c1N1CCC(CC1)N1CCNC1=O)C)-n1nccc1C)C(=O)NCCO

> <FORMATTED_ID>
H3D-004897

> <MOLFORMULA>
C26H33N7O3

> <Exact Mass>
491.26

> <XLogP>
1.13

> <TPSA_NOPS>
115.6

> <s_m_source_file>
ligprep_h3d.sdf

> <i_m_source_file_index>
700

> <i_lp_mmshare_version>
55123

> <i_f3d_flags>
0

> <s_epik_input>
W09IXVtDSDJdW0NIMl1bTkhdQyg9TyljKG4xKVtjSF1jKC1uMm5bY0hdW2NIXWMyW0NIM10pYyhjMTMpYyhbQ0gzXSljKGMoW0NIM10pW2NIXTMpTjRbQ0gyXVtDSDJdW0NIXShbQ0gyXVtDSDJdNClONVtDSDJdW0NIMl1bTkhdQzU9Tw==

> <s_epik_cmdline>
J2VwaWtfcHl0aG9uJywgJy1waHQnLCAnMC41JywgJy1waCcsICc3LjUnLCAnLXRuJywgJzgnLCAnLW1hJywgJzUwMCcsICctaW1hZScsICc8aW5maWxlLm1hZT4nLCAnLW9tYWUnLCAnPG91dGZpbGUubWFlPic=

> <r_lp_tautomer_probability>
1

> <r_epik_Ionization_Penalty>
0.000109725

> <r_epik_Ionization_Penalty_Charging>
0

> <r_epik_Ionization_Penalty_Neutral>
0.000109725

> <r_epik_State_Penalty>
-0

> <r_epik_Charging_Adjusted_Penalty>
0

> <i_epik_Tot_Q>
0

> <i_epik_Tot_abs_Q>
0

> <s_lp_Force_Field>
S-OPLS

> <r_lp_Energy>
59.2245

> <b_lp_Chiralities_Consistent>
1

> <s_lp_Variant>
ligprep_h3d.sdf:700-1

> <ROCS_ShapeQuery>
_7L13

> <ROCS_TanimotoCombo>
0.730 

> <ROCS_ShapeTanimoto>
0.631 

> <ROCS_ColorTanimoto>
0.099 

> <ROCS_RefTversky>
0.776 

> <ROCS_RefColorTversky>
0.216 

> <ROCS_RefTverskyCombo>
0.992 

> <ROCS_FitTversky>
0.771 

> <ROCS_FitColorTversky>
0.155 

> <ROCS_FitTverskyCombo>
0.926 

> <ROCS_ColorScore>
-1.983

> <ROCS_Overlap>
1289.094

> <ROCS_Rank>
420                 

$$$$
ligprep_h3d.sdf:739_110
  -OEChem-08212117123D

 61 66  0     1  0  0  0  0  0999 V2000
  -20.5721   -4.9472  -29.7813 C   0  0  0  0  0  0  0  0  0  0  0  0
  -21.4705   -4.3432  -30.6630 C   0  0  0  0  0  0  0  0  0  0  0  0
  -20.7656   -4.7782  -28.3885 C   0  0  0  0  0  0  0  0  0  0  0  0
  -21.8580   -4.0548  -27.8550 C   0  0  0  0  0  0  0  0  0  0  0  0
  -22.5123   -3.6109  -30.1379 C   0  0  0  0  0  0  0  0  0  0  0  0
  -22.7412   -3.4379  -28.7726 C   0  0  0  0  0  0  0  0  0  0  0  0
  -21.6537   -4.2370  -32.0543 C   0  0  0  0  0  0  0  0  0  0  0  0
  -18.9183   -3.3416  -26.3856 C   0  0  0  0  0  0  0  0  0  0  0  0
  -18.7994   -5.6641  -25.2729 C   0  0  0  0  0  0  0  0  0  0  0  0
  -16.7368   -4.4221  -25.8904 C   0  0  0  0  0  0  0  0  0  0  0  0
  -19.7660   -5.4261  -27.4680 C   0  0  0  0  0  0  0  0  0  0  0  0
  -18.7698   -4.7325  -34.3634 C   0  0  0  0  0  0  0  0  0  0  0  0
  -18.9377   -6.1698  -34.8490 C   0  0  0  0  0  0  0  0  0  0  0  0
  -19.3659   -4.5029  -32.9788 C   0  0  0  0  0  0  0  0  0  0  0  0
  -21.2931   -5.8356  -33.9259 C   0  0  0  0  0  0  0  0  0  0  0  0
  -23.1841   -3.2196  -25.9245 C   0  0  0  0  0  0  0  0  0  0  0  0
  -21.0450   -4.4876  -25.5022 C   0  0  2  0  0  0  0  0  0  0  0  0
  -20.2028   -6.8368  -34.3130 C   0  0  2  0  0  0  0  0  0  0  0  0
  -23.5139   -3.6472  -24.4916 C   0  0  1  0  0  0  0  0  0  0  0  0
  -21.1082   -3.5775  -24.2410 C   0  0  2  0  0  0  0  0  0  0  0  0
  -19.6257   -4.6802  -26.1175 C   0  0  0  0  0  0  0  0  0  0  0  0
  -24.2381   -4.9908  -24.4307 C   0  0  0  0  0  0  0  0  0  0  0  0
  -20.0988   -3.8832  -23.1409 C   0  0  0  0  0  0  0  0  0  0  0  0
  -22.7213   -3.4976  -32.3699 N   0  0  0  0  0  0  0  0  0  0  0  0
  -17.5334   -3.3946  -26.3751 N   0  0  0  0  0  0  0  0  0  0  0  0
  -17.4254   -5.4922  -25.3371 N   0  0  0  0  0  0  0  0  0  0  0  0
  -22.0341   -3.9499  -26.4732 N   0  0  3  0  0  0  0  0  0  0  0  0
  -20.7899   -4.8484  -32.9623 N   0  0  0  0  0  0  0  0  0  0  0  0
  -19.5200   -2.3022  -26.6556 O   0  0  0  0  0  0  0  0  0  0  0  0
  -19.3053   -6.5989  -24.6504 O   0  0  0  0  0  0  0  0  0  0  0  0
  -15.5060   -4.3698  -25.9127 O   0  0  0  0  0  0  0  0  0  0  0  0
  -23.2622   -3.1003  -31.1527 O   0  0  0  0  0  0  0  0  0  0  0  0
  -22.3920   -3.6966  -23.6155 O   0  0  0  0  0  0  0  0  0  0  0  0
  -19.8569   -7.6226  -33.1701 O   0  0  0  0  0  0  0  0  0  0  0  0
  -23.7272   -2.6113  -28.4047 F   0  0  0  0  0  0  0  0  0  0  0  0
  -19.7345   -5.5285  -30.1565 H   0  0  0  0  0  0  0  0  0  0  0  0
  -20.0903   -6.4636  -27.3084 H   0  0  0  0  0  0  0  0  0  0  0  0
  -18.7882   -5.4759  -27.9667 H   0  0  0  0  0  0  0  0  0  0  0  0
  -17.7004   -4.4745  -34.3509 H   0  0  0  0  0  0  0  0  0  0  0  0
  -19.2429   -4.0474  -35.0847 H   0  0  0  0  0  0  0  0  0  0  0  0
  -18.9430   -6.1959  -35.9556 H   0  0  0  0  0  0  0  0  0  0  0  0
  -18.0502   -6.7684  -34.5628 H   0  0  0  0  0  0  0  0  0  0  0  0
  -18.8370   -5.1144  -32.2362 H   0  0  0  0  0  0  0  0  0  0  0  0
  -19.2197   -3.4515  -32.6990 H   0  0  0  0  0  0  0  0  0  0  0  0
  -21.6610   -5.3406  -34.8365 H   0  0  0  0  0  0  0  0  0  0  0  0
  -22.1594   -6.3619  -33.4992 H   0  0  0  0  0  0  0  0  0  0  0  0
  -24.0521   -3.4307  -26.5828 H   0  0  0  0  0  0  0  0  0  0  0  0
  -23.0982   -2.1221  -25.9298 H   0  0  0  0  0  0  0  0  0  0  0  0
  -21.4349   -5.4761  -25.2139 H   0  0  0  0  0  0  0  0  0  0  0  0
  -20.5974   -7.5376  -35.0738 H   0  0  0  0  0  0  0  0  0  0  0  0
  -24.2475   -2.8865  -24.0506 H   0  0  0  0  0  0  0  0  0  0  0  0
  -20.9724   -2.5157  -24.5170 H   0  0  0  0  0  0  0  0  0  0  0  0
  -23.6009   -5.7769  -24.8362 H   0  0  0  0  0  0  0  0  0  0  0  0
  -25.1580   -4.9456  -25.0139 H   0  0  0  0  0  0  0  0  0  0  0  0
  -24.4861   -5.2345  -23.3974 H   0  0  0  0  0  0  0  0  0  0  0  0
  -20.1902   -4.9239  -22.8298 H   0  0  0  0  0  0  0  0  0  0  0  0
  -20.2795   -3.2395  -22.2800 H   0  0  0  0  0  0  0  0  0  0  0  0
  -19.0863   -3.7106  -23.5057 H   0  0  0  0  0  0  0  0  0  0  0  0
  -17.0479   -2.5926  -26.7653 H   0  0  0  0  0  0  0  0  0  0  0  0
  -16.8602   -6.2035  -24.8825 H   0  0  0  0  0  0  0  0  0  0  0  0
  -19.2126   -8.2821  -33.4718 H   0  0  0  0  0  0  0  0  0  0  0  0
  1  2  2  0  0  0  0
  1  3  1  0  0  0  0
  2  5  1  0  0  0  0
  2  7  1  0  0  0  0
  3  4  2  0  0  0  0
  3 11  1  0  0  0  0
  4  6  1  0  0  0  0
  4 27  1  0  0  0  0
  5  6  2  0  0  0  0
  5 32  1  0  0  0  0
  6 35  1  0  0  0  0
  7 24  2  0  0  0  0
  7 28  1  0  0  0  0
  8 21  1  0  0  0  0
  8 25  1  0  0  0  0
  8 29  2  0  0  0  0
  9 21  1  0  0  0  0
  9 26  1  0  0  0  0
  9 30  2  0  0  0  0
 10 25  1  0  0  0  0
 10 26  1  0  0  0  0
 10 31  2  0  0  0  0
 11 21  1  0  0  0  0
 12 13  1  0  0  0  0
 12 14  1  0  0  0  0
 13 18  1  0  0  0  0
 14 28  1  0  0  0  0
 15 18  1  0  0  0  0
 15 28  1  0  0  0  0
 16 19  1  0  0  0  0
 16 27  1  0  0  0  0
 17 20  1  0  0  0  0
 17 21  1  0  0  0  0
 17 27  1  0  0  0  0
 18 34  1  0  0  0  0
 19 22  1  0  0  0  0
 19 33  1  0  0  0  0
 20 23  1  0  0  0  0
 20 33  1  0  0  0  0
 24 32  1  0  0  0  0
  1 36  1  0  0  0  0
 11 37  1  0  0  0  0
 11 38  1  0  0  0  0
 12 39  1  0  0  0  0
 12 40  1  0  0  0  0
 13 41  1  0  0  0  0
 13 42  1  0  0  0  0
 14 43  1  0  0  0  0
 14 44  1  0  0  0  0
 15 45  1  0  0  0  0
 15 46  1  0  0  0  0
 16 47  1  0  0  0  0
 16 48  1  0  0  0  0
 17 49  1  0  0  0  0
 18 50  1  0  0  0  0
 19 51  1  0  0  0  0
 20 52  1  0  0  0  0
 22 53  1  0  0  0  0
 22 54  1  0  0  0  0
 22 55  1  0  0  0  0
 23 56  1  0  0  0  0
 23 57  1  0  0  0  0
 23 58  1  0  0  0  0
 25 59  1  0  0  0  0
 26 60  1  0  0  0  0
 34 61  1  0  0  0  0
M  END
> <SMILES>
C[C@@H]1CN2[C@H]([C@H](C)O1)C1(Cc3cc4c(noc4c(c32)F)N2CCC[C@@H](O)C2)C(=O)NC(=O)NC1=O

> <FORMATTED_ID>
H3D-004995

> <MOLFORMULA>
C23H26FN5O6

> <Exact Mass>
487.19

> <XLogP>
0.29

> <TPSA_NOPS>
137.5

> <s_m_source_file>
ligprep_h3d.sdf

> <i_m_source_file_index>
739

> <i_lp_mmshare_version>
55123

> <i_f3d_flags>
0

> <s_epik_input>
Tz1DMVtOSF1DKD1PKVtOSF1DKD1PKUMxMltDQEBIXTNOKFtDSDJdW0NAQEhdKFtDSDNdKU9bQ0BIXTNbQ0gzXSljNGMoW0NIMl0yKVtjSF1jNWMoYzRGKW9uYzVONltDSDJdW0NIMl1bQ0gyXVtDQEBIXShbT0hdKVtDSDJdNg==

> <s_epik_cmdline>
J2VwaWtfcHl0aG9uJywgJy1waHQnLCAnMC41JywgJy1waCcsICc3LjUnLCAnLXRuJywgJzgnLCAnLW1hJywgJzUwMCcsICctaW1hZScsICc8aW5maWxlLm1hZT4nLCAnLW9tYWUnLCAnPG91dGZpbGUubWFlPic=

> <r_lp_tautomer_probability>
1

> <r_epik_Ionization_Penalty>
0.36913

> <r_epik_Ionization_Penalty_Charging>
0

> <r_epik_Ionization_Penalty_Neutral>
0.36913

> <r_epik_State_Penalty>
0.366447

> <r_epik_Charging_Adjusted_Penalty>
0.366447

> <i_epik_Tot_Q>
0

> <i_epik_Tot_abs_Q>
0

> <s_lp_Force_Field>
S-OPLS

> <r_lp_Energy>
45.0276

> <b_lp_Chiralities_Consistent>
1

> <s_lp_Variant>
ligprep_h3d.sdf:739-1

> <ROCS_ShapeQuery>
_7L13

> <ROCS_TanimotoCombo>
0.748 

> <ROCS_ShapeTanimoto>
0.638 

> <ROCS_ColorTanimoto>
0.110 

> <ROCS_RefTversky>
0.776 

> <ROCS_RefColorTversky>
0.257 

> <ROCS_RefTverskyCombo>
1.033 

> <ROCS_FitTversky>
0.781 

> <ROCS_FitColorTversky>
0.162 

> <ROCS_FitTverskyCombo>
0.944 

> <ROCS_ColorScore>
-2.391

> <ROCS_Overlap>
1288.141

> <ROCS_Rank>
421                 

$$$$
ligprep_h3d.sdf:508_483
  -OEChem-08212117123D

 61 66  0     1  0  0  0  0  0999 V2000
  -20.8896   -4.9947  -29.5781 C   0  0  0  0  0  0  0  0  0  0  0  0
  -21.6729   -4.3298  -30.5250 C   0  0  0  0  0  0  0  0  0  0  0  0
  -21.1484   -4.7784  -28.2031 C   0  0  0  0  0  0  0  0  0  0  0  0
  -22.1988   -3.9396  -27.7587 C   0  0  0  0  0  0  0  0  0  0  0  0
  -22.6730   -3.4923  -30.0807 C   0  0  0  0  0  0  0  0  0  0  0  0
  -22.9675   -3.2663  -28.7373 C   0  0  0  0  0  0  0  0  0  0  0  0
  -21.7598   -4.2405  -31.9268 C   0  0  0  0  0  0  0  0  0  0  0  0
  -19.3863   -3.4754  -26.0718 C   0  0  0  0  0  0  0  0  0  0  0  0
  -19.4254   -5.7263  -24.8952 C   0  0  0  0  0  0  0  0  0  0  0  0
  -17.2879   -4.7349  -25.6914 C   0  0  0  0  0  0  0  0  0  0  0  0
  -20.2732   -5.5069  -27.2118 C   0  0  0  0  0  0  0  0  0  0  0  0
  -19.2369   -5.4404  -34.3271 C   0  0  0  0  0  0  0  0  0  0  0  0
  -19.6334   -4.4462  -33.2411 C   0  0  0  0  0  0  0  0  0  0  0  0
  -21.1930   -6.2956  -33.2472 C   0  0  0  0  0  0  0  0  0  0  0  0
  -23.7168   -3.1666  -25.9546 C   0  0  0  0  0  0  0  0  0  0  0  0
  -21.6289   -4.4082  -25.3469 C   0  0  1  0  0  0  0  0  0  0  0  0
  -19.8668   -6.7436  -33.8585 C   0  0  1  0  0  0  0  0  0  0  0  0
  -23.9949   -3.5087  -24.4882 C   0  0  1  0  0  0  0  0  0  0  0  0
  -22.5444   -5.4460  -24.6307 C   0  0  2  0  0  0  0  0  0  0  0  0
  -20.1962   -4.7858  -25.8480 C   0  0  0  0  0  0  0  0  0  0  0  0
  -25.4196   -3.1323  -24.0999 C   0  0  0  0  0  0  0  0  0  0  0  0
  -22.8133   -6.7391  -25.3923 C   0  0  0  0  0  0  0  0  0  0  0  0
  -18.8613   -7.9587  -35.5907 C   0  0  0  0  0  0  0  0  0  0  0  0
  -22.7324   -3.4138  -32.3231 N   0  0  0  0  0  0  0  0  0  0  0  0
  -18.0121   -3.6448  -26.1520 N   0  0  0  0  0  0  0  0  0  0  0  0
  -18.0450   -5.7132  -25.0607 N   0  0  0  0  0  0  0  0  0  0  0  0
  -22.4543   -3.7734  -26.3972 N   0  0  3  0  0  0  0  0  0  0  0  0
  -20.9173   -4.9477  -32.7579 N   0  0  0  0  0  0  0  0  0  0  0  0
  -19.9051   -2.3685  -26.2169 O   0  0  0  0  0  0  0  0  0  0  0  0
  -19.9522   -6.4915  -24.0916 O   0  0  0  0  0  0  0  0  0  0  0  0
  -16.0612   -4.8018  -25.7809 O   0  0  0  0  0  0  0  0  0  0  0  0
  -23.3086   -2.9402  -31.1502 O   0  0  0  0  0  0  0  0  0  0  0  0
  -23.8498   -4.9158  -24.3026 O   0  0  0  0  0  0  0  0  0  0  0  0
  -20.0799   -7.6315  -34.9379 O   0  0  0  0  0  0  0  0  0  0  0  0
  -23.9970   -2.4661  -28.4290 F   0  0  0  0  0  0  0  0  0  0  0  0
  -20.1045   -5.6787  -29.8908 H   0  0  0  0  0  0  0  0  0  0  0  0
  -20.6528   -6.5325  -27.0740 H   0  0  0  0  0  0  0  0  0  0  0  0
  -19.2713   -5.6083  -27.6601 H   0  0  0  0  0  0  0  0  0  0  0  0
  -19.5954   -5.1221  -35.3101 H   0  0  0  0  0  0  0  0  0  0  0  0
  -18.1459   -5.5392  -34.3567 H   0  0  0  0  0  0  0  0  0  0  0  0
  -18.8813   -4.4032  -32.4456 H   0  0  0  0  0  0  0  0  0  0  0  0
  -19.7633   -3.4411  -33.6601 H   0  0  0  0  0  0  0  0  0  0  0  0
  -22.0093   -6.2976  -33.9791 H   0  0  0  0  0  0  0  0  0  0  0  0
  -21.4624   -6.9345  -32.3975 H   0  0  0  0  0  0  0  0  0  0  0  0
  -24.5283   -3.5235  -26.6028 H   0  0  0  0  0  0  0  0  0  0  0  0
  -23.6793   -2.0711  -26.0082 H   0  0  0  0  0  0  0  0  0  0  0  0
  -21.5062   -3.5808  -24.6067 H   0  0  0  0  0  0  0  0  0  0  0  0
  -19.2253   -7.2558  -33.1120 H   0  0  0  0  0  0  0  0  0  0  0  0
  -23.3002   -2.9956  -23.8372 H   0  0  0  0  0  0  0  0  0  0  0  0
  -22.0985   -5.7167  -23.6849 H   0  0  0  0  0  0  0  0  0  0  0  0
  -26.1293   -3.6437  -24.7495 H   0  0  0  0  0  0  0  0  0  0  0  0
  -25.5599   -2.0563  -24.1990 H   0  0  0  0  0  0  0  0  0  0  0  0
  -25.6120   -3.4216  -23.0671 H   0  0  0  0  0  0  0  0  0  0  0  0
  -23.2654   -6.5143  -26.3578 H   0  0  0  0  0  0  0  0  0  0  0  0
  -23.4920   -7.3720  -24.8215 H   0  0  0  0  0  0  0  0  0  0  0  0
  -21.8790   -7.2759  -25.5543 H   0  0  0  0  0  0  0  0  0  0  0  0
  -19.0627   -8.6445  -36.4173 H   0  0  0  0  0  0  0  0  0  0  0  0
  -18.1774   -8.4233  -34.8760 H   0  0  0  0  0  0  0  0  0  0  0  0
  -18.4104   -7.0434  -35.9813 H   0  0  0  0  0  0  0  0  0  0  0  0
  -17.4872   -2.9009  -26.5889 H   0  0  0  0  0  0  0  0  0  0  0  0
  -17.5307   -6.4642  -24.6164 H   0  0  0  0  0  0  0  0  0  0  0  0
  1  2  2  0  0  0  0
  1  3  1  0  0  0  0
  2  5  1  0  0  0  0
  2  7  1  0  0  0  0
  3  4  2  0  0  0  0
  3 11  1  0  0  0  0
  4  6  1  0  0  0  0
  4 27  1  0  0  0  0
  5  6  2  0  0  0  0
  5 32  1  0  0  0  0
  6 35  1  0  0  0  0
  7 24  2  0  0  0  0
  7 28  1  0  0  0  0
  8 20  1  0  0  0  0
  8 25  1  0  0  0  0
  8 29  2  0  0  0  0
  9 20  1  0  0  0  0
  9 26  1  0  0  0  0
  9 30  2  0  0  0  0
 10 25  1  0  0  0  0
 10 26  1  0  0  0  0
 10 31  2  0  0  0  0
 11 20  1  0  0  0  0
 12 13  1  0  0  0  0
 12 17  1  0  0  0  0
 13 28  1  0  0  0  0
 14 17  1  0  0  0  0
 14 28  1  0  0  0  0
 15 18  1  0  0  0  0
 15 27  1  0  0  0  0
 16 19  1  0  0  0  0
 16 20  1  0  0  0  0
 16 27  1  0  0  0  0
 17 34  1  0  0  0  0
 18 21  1  0  0  0  0
 18 33  1  0  0  0  0
 19 22  1  0  0  0  0
 19 33  1  0  0  0  0
 23 34  1  0  0  0  0
 24 32  1  0  0  0  0
  1 36  1  0  0  0  0
 11 37  1  0  0  0  0
 11 38  1  0  0  0  0
 12 39  1  0  0  0  0
 12 40  1  0  0  0  0
 13 41  1  0  0  0  0
 13 42  1  0  0  0  0
 14 43  1  0  0  0  0
 14 44  1  0  0  0  0
 15 45  1  0  0  0  0
 15 46  1  0  0  0  0
 16 47  1  0  0  0  0
 17 48  1  0  0  0  0
 18 49  1  0  0  0  0
 19 50  1  0  0  0  0
 21 51  1  0  0  0  0
 21 52  1  0  0  0  0
 21 53  1  0  0  0  0
 22 54  1  0  0  0  0
 22 55  1  0  0  0  0
 22 56  1  0  0  0  0
 23 57  1  0  0  0  0
 23 58  1  0  0  0  0
 23 59  1  0  0  0  0
 25 60  1  0  0  0  0
 26 61  1  0  0  0  0
M  END
> <SMILES>
CO[C@H]1CCN(C1)c1noc2c(c3c(cc12)CC1(C2C(C)OC(C)CN23)C(=O)NC(=O)NC1=O)F

> <FORMATTED_ID>
H3D-004136

> <MOLFORMULA>
C23H26FN5O6

> <Exact Mass>
487.19

> <XLogP>
0.55

> <TPSA_NOPS>
126.5

> <s_m_source_file>
ligprep_h3d.sdf

> <i_m_source_file_index>
508

> <i_lp_mmshare_version>
55123

> <i_f3d_flags>
0

> <s_epik_input>
W0NIM11PW0NASF0xW0NIMl1bQ0gyXU4oW0NIMl0xKWMybm9jKGMzRiljMltjSF1jKFtDSDJdNCljM04oW0NIMl1bQ0BASF0oW0NIM10pT1tDQEhdNVtDSDNdKVtDQEBIXTVDNDZDKD1PKVtOSF1DKD1PKVtOSF1DNj1P

> <s_epik_cmdline>
J2VwaWtfcHl0aG9uJywgJy1waHQnLCAnMC41JywgJy1waCcsICc3LjUnLCAnLXRuJywgJzgnLCAnLW1hJywgJzUwMCcsICctaW1hZScsICc8aW5maWxlLm1hZT4nLCAnLW9tYWUnLCAnPG91dGZpbGUubWFlPic=

> <r_lp_tautomer_probability>
1

> <r_epik_Ionization_Penalty>
0.36913

> <r_epik_Ionization_Penalty_Charging>
0

> <r_epik_Ionization_Penalty_Neutral>
0.36913

> <r_epik_State_Penalty>
0.366447

> <r_epik_Charging_Adjusted_Penalty>
0.366447

> <i_epik_Tot_Q>
0

> <i_epik_Tot_abs_Q>
0

> <s_lp_Force_Field>
S-OPLS

> <r_lp_Energy>
53.612

> <b_lp_Chiralities_Consistent>
1

> <s_lp_Variant>
ligprep_h3d.sdf:508-1

> <ROCS_ShapeQuery>
_7L13

> <ROCS_TanimotoCombo>
0.731 

> <ROCS_ShapeTanimoto>
0.635 

> <ROCS_ColorTanimoto>
0.095 

> <ROCS_RefTversky>
0.776 

> <ROCS_RefColorTversky>
0.217 

> <ROCS_RefTverskyCombo>
0.993 

> <ROCS_FitTversky>
0.778 

> <ROCS_FitColorTversky>
0.145 

> <ROCS_FitTverskyCombo>
0.923 

> <ROCS_ColorScore>
-2.005

> <ROCS_Overlap>
1288.428

> <ROCS_Rank>
422                 

$$$$
ligprep_h3d.sdf:2756_942
  -OEChem-08212117123D

 64 68  0     0  0  0  0  0  0999 V2000
  -25.3562   -5.2190  -23.5488 C   0  0  0  0  0  0  0  0  0  0  0  0
  -24.2593   -4.5888  -22.9568 C   0  0  0  0  0  0  0  0  0  0  0  0
  -19.9774   -7.7593  -33.6713 C   0  0  0  0  0  0  0  0  0  0  0  0
  -20.0675   -6.7008  -32.7674 C   0  0  0  0  0  0  0  0  0  0  0  0
  -19.6257   -3.3545  -24.6136 C   0  0  0  0  0  0  0  0  0  0  0  0
  -20.0650   -4.4708  -26.7107 C   0  0  0  0  0  0  0  0  0  0  0  0
  -18.5316   -4.1920  -24.3969 C   0  0  0  0  0  0  0  0  0  0  0  0
  -18.9708   -5.3084  -26.4941 C   0  0  0  0  0  0  0  0  0  0  0  0
  -25.5399   -5.1941  -24.9370 C   0  0  0  0  0  0  0  0  0  0  0  0
  -23.3079   -3.9122  -23.7273 C   0  0  0  0  0  0  0  0  0  0  0  0
  -19.7595   -6.1861  -35.4919 C   0  0  0  0  0  0  0  0  0  0  0  0
  -19.8233   -7.5020  -35.0336 C   0  0  0  0  0  0  0  0  0  0  0  0
  -20.3925   -3.4939  -25.7705 C   0  0  0  0  0  0  0  0  0  0  0  0
  -18.2041   -5.1690  -25.3371 C   0  0  0  0  0  0  0  0  0  0  0  0
  -20.0038   -5.3850  -33.2257 C   0  0  0  0  0  0  0  0  0  0  0  0
  -24.5939   -4.5187  -25.7265 C   0  0  0  0  0  0  0  0  0  0  0  0
  -23.5112   -3.9002  -25.1076 C   0  0  0  0  0  0  0  0  0  0  0  0
  -19.8498   -5.1276  -34.5880 C   0  0  0  0  0  0  0  0  0  0  0  0
  -23.4532   -3.6413  -27.3041 C   0  0  0  0  0  0  0  0  0  0  0  0
  -19.7280   -8.6189  -35.9870 C   0  0  0  0  0  0  0  0  0  0  0  0
  -23.2579   -4.8812  -30.2629 C   0  0  0  0  0  0  0  0  0  0  0  0
  -23.1024   -2.4446  -30.8385 C   0  0  0  0  0  0  0  0  0  0  0  0
  -21.8067   -5.0403  -30.7271 C   0  0  0  0  0  0  0  0  0  0  0  0
  -21.6565   -2.6852  -31.2838 C   0  0  0  0  0  0  0  0  0  0  0  0
  -23.5578   -3.4581  -29.7861 C   0  0  0  0  0  0  0  0  0  0  0  0
  -21.5728   -2.5904  -26.0053 C   0  0  0  0  0  0  0  0  0  0  0  0
  -20.1018   -4.2582  -32.2383 C   0  0  0  0  0  0  0  0  0  0  0  0
  -17.0331   -6.0631  -25.1055 C   0  0  0  0  0  0  0  0  0  0  0  0
  -24.5409   -4.3474  -27.0908 N   0  0  0  0  0  0  0  0  0  0  0  0
  -22.7985   -3.3473  -26.1405 N   0  0  0  0  0  0  0  0  0  0  0  0
  -21.4728   -4.0597  -31.7686 N   0  0  0  0  0  0  0  0  0  0  0  0
  -22.9381   -3.1955  -28.5065 N   0  0  0  0  0  0  0  0  0  0  0  0
  -19.5864   -8.3544  -37.2396 O   0  5  0  0  0  0  0  0  0  0  0  0
  -19.7896   -9.8245  -35.5379 O   0  0  0  0  0  0  0  0  0  0  0  0
  -19.7848   -3.8482  -35.0517 O   0  0  0  0  0  0  0  0  0  0  0  0
  -16.3758   -5.8122  -23.9347 F   0  0  0  0  0  0  0  0  0  0  0  0
  -17.3591   -7.3885  -25.0537 F   0  0  0  0  0  0  0  0  0  0  0  0
  -16.0890   -5.9563  -26.0854 F   0  0  0  0  0  0  0  0  0  0  0  0
  -26.0786   -5.7371  -22.9232 H   0  0  0  0  0  0  0  0  0  0  0  0
  -24.1415   -4.6247  -21.8766 H   0  0  0  0  0  0  0  0  0  0  0  0
  -20.0279   -8.7811  -33.3045 H   0  0  0  0  0  0  0  0  0  0  0  0
  -20.1869   -6.9117  -31.7079 H   0  0  0  0  0  0  0  0  0  0  0  0
  -19.8737   -2.5962  -23.8754 H   0  0  0  0  0  0  0  0  0  0  0  0
  -20.6562   -4.5853  -27.6155 H   0  0  0  0  0  0  0  0  0  0  0  0
  -17.9390   -4.0749  -23.4935 H   0  0  0  0  0  0  0  0  0  0  0  0
  -18.7225   -6.0670  -27.2316 H   0  0  0  0  0  0  0  0  0  0  0  0
  -26.3955   -5.6867  -25.3876 H   0  0  0  0  0  0  0  0  0  0  0  0
  -22.4568   -3.4237  -23.2667 H   0  0  0  0  0  0  0  0  0  0  0  0
  -19.6393   -5.9810  -36.5530 H   0  0  0  0  0  0  0  0  0  0  0  0
  -23.9282   -5.1235  -31.0985 H   0  0  0  0  0  0  0  0  0  0  0  0
  -23.4789   -5.6077  -29.4715 H   0  0  0  0  0  0  0  0  0  0  0  0
  -23.2112   -1.4207  -30.4604 H   0  0  0  0  0  0  0  0  0  0  0  0
  -23.7622   -2.5214  -31.7131 H   0  0  0  0  0  0  0  0  0  0  0  0
  -21.1269   -4.9503  -29.8697 H   0  0  0  0  0  0  0  0  0  0  0  0
  -21.6891   -6.0556  -31.1256 H   0  0  0  0  0  0  0  0  0  0  0  0
  -21.4291   -1.9767  -32.0899 H   0  0  0  0  0  0  0  0  0  0  0  0
  -20.9681   -2.4644  -30.4576 H   0  0  0  0  0  0  0  0  0  0  0  0
  -24.6546   -3.3558  -29.6497 H   0  0  0  0  0  0  0  0  0  0  0  0
  -21.6978   -1.8795  -25.1794 H   0  0  0  0  0  0  0  0  0  0  0  0
  -21.4383   -1.9909  -26.9139 H   0  0  0  0  0  0  0  0  0  0  0  0
  -19.4710   -4.4547  -31.3644 H   0  0  0  0  0  0  0  0  0  0  0  0
  -19.7600   -3.3168  -32.6811 H   0  0  0  0  0  0  0  0  0  0  0  0
  -22.0823   -2.6577  -28.4995 H   0  0  0  0  0  0  0  0  0  0  0  0
  -19.6770   -3.8463  -36.0158 H   0  0  0  0  0  0  0  0  0  0  0  0
  1  2  2  0  0  0  0
  1  9  1  0  0  0  0
  2 10  1  0  0  0  0
  3  4  1  0  0  0  0
  3 12  2  0  0  0  0
  4 15  2  0  0  0  0
  5  7  1  0  0  0  0
  5 13  2  0  0  0  0
  6  8  2  0  0  0  0
  6 13  1  0  0  0  0
  7 14  2  0  0  0  0
  8 14  1  0  0  0  0
  9 16  2  0  0  0  0
 10 17  2  0  0  0  0
 11 12  1  0  0  0  0
 11 18  2  0  0  0  0
 12 20  1  0  0  0  0
 13 26  1  0  0  0  0
 14 28  1  0  0  0  0
 15 18  1  0  0  0  0
 15 27  1  0  0  0  0
 16 17  1  0  0  0  0
 16 29  1  0  0  0  0
 17 30  1  0  0  0  0
 18 35  1  0  0  0  0
 19 29  2  0  0  0  0
 19 30  1  0  0  0  0
 19 32  1  0  0  0  0
 20 33  1  0  0  0  0
 20 34  2  0  0  0  0
 21 23  1  0  0  0  0
 21 25  1  0  0  0  0
 22 24  1  0  0  0  0
 22 25  1  0  0  0  0
 23 31  1  0  0  0  0
 24 31  1  0  0  0  0
 25 32  1  0  0  0  0
 26 30  1  0  0  0  0
 27 31  1  0  0  0  0
 28 36  1  0  0  0  0
 28 37  1  0  0  0  0
 28 38  1  0  0  0  0
  1 39  1  0  0  0  0
  2 40  1  0  0  0  0
  3 41  1  0  0  0  0
  4 42  1  0  0  0  0
  5 43  1  0  0  0  0
  6 44  1  0  0  0  0
  7 45  1  0  0  0  0
  8 46  1  0  0  0  0
  9 47  1  0  0  0  0
 10 48  1  0  0  0  0
 11 49  1  0  0  0  0
 21 50  1  0  0  0  0
 21 51  1  0  0  0  0
 22 52  1  0  0  0  0
 22 53  1  0  0  0  0
 23 54  1  0  0  0  0
 23 55  1  0  0  0  0
 24 56  1  0  0  0  0
 24 57  1  0  0  0  0
 25 58  1  0  0  0  0
 26 59  1  0  0  0  0
 26 60  1  0  0  0  0
 27 61  1  0  0  0  0
 27 62  1  0  0  0  0
 32 63  1  0  0  0  0
 35 64  1  0  0  0  0
M  CHG  1  33  -1
M  END
> <SMILES>
OC(=O)c1ccc(c(c1)O)CN1CCC(CC1)Nc1nc2ccccc2n1Cc1ccc(cc1)C(F)(F)F

> <FORMATTED_ID>
H3D-008447

> <MOLFORMULA>
C28H27F3N4O3

> <Exact Mass>
524.2

> <XLogP>
6.52

> <TPSA_NOPS>
90.6

> <s_m_source_file>
ligprep_h3d.sdf

> <i_m_source_file_index>
2756

> <i_lp_mmshare_version>
55123

> <i_f3d_flags>
0

> <s_epik_input>
W09IXUMoPU8pYzFbY0hdW2NIXWMoYyhbY0hdMSlbT0hdKVtDSDJdTjJbQ0gyXVtDSDJdW0NIXShbQ0gyXVtDSDJdMilbTkhdYyhuMyluKGMoYzM0KVtjSF1bY0hdW2NIXVtjSF00KVtDSDJdYzVbY0hdW2NIXWMoQyhGKShGKUYpW2NIXVtjSF01

> <s_epik_cmdline>
J2VwaWtfcHl0aG9uJywgJy1waHQnLCAnMC41JywgJy1waCcsICc3LjUnLCAnLXRuJywgJzgnLCAnLW1hJywgJzUwMCcsICctaW1hZScsICc8aW5maWxlLm1hZT4nLCAnLW9tYWUnLCAnPG91dGZpbGUubWFlPic=

> <r_epik_Ionization_Penalty>
0.705513

> <r_epik_Ionization_Penalty_Charging>
0.00023258

> <r_epik_Ionization_Penalty_Neutral>
0.705281

> <r_epik_State_Penalty>
0.466816

> <r_epik_Charging_Adjusted_Penalty>
0.467048

> <i_epik_Tot_Q>
-1

> <i_epik_Tot_abs_Q>
1

> <s_lp_Force_Field>
S-OPLS

> <r_lp_Energy>
44.6532

> <b_lp_Chiralities_Consistent>
1

> <s_lp_Variant>
ligprep_h3d.sdf:2756-1

> <ROCS_ShapeQuery>
_7L13

> <ROCS_TanimotoCombo>
0.696 

> <ROCS_ShapeTanimoto>
0.608 

> <ROCS_ColorTanimoto>
0.088 

> <ROCS_RefTversky>
0.776 

> <ROCS_RefColorTversky>
0.194 

> <ROCS_RefTverskyCombo>
0.970 

> <ROCS_FitTversky>
0.737 

> <ROCS_FitColorTversky>
0.139 

> <ROCS_FitTverskyCombo>
0.877 

> <ROCS_ColorScore>
-1.789

> <ROCS_Overlap>
1292.041

> <ROCS_Rank>
423                 

$$$$
ligprep_h3d.sdf:869_1841
  -OEChem-08212117123D

 63 66  0     0  0  0  0  0  0999 V2000
  -16.7815   -6.2275  -26.4295 C   0  0  0  0  0  0  0  0  0  0  0  0
  -22.7221   -4.1067  -29.0729 C   0  0  0  0  0  0  0  0  0  0  0  0
  -20.6300   -4.5209  -25.5061 C   0  0  0  0  0  0  0  0  0  0  0  0
  -16.5627   -4.8384  -26.4950 C   0  0  0  0  0  0  0  0  0  0  0  0
  -20.6729   -4.6081  -27.9218 C   0  0  0  0  0  0  0  0  0  0  0  0
  -20.7555   -4.6851  -30.3464 C   0  0  0  0  0  0  0  0  0  0  0  0
  -22.0965   -4.3244  -30.3029 C   0  0  0  0  0  0  0  0  0  0  0  0
  -20.0434   -4.8271  -29.1589 C   0  0  0  0  0  0  0  0  0  0  0  0
  -22.0342   -4.2418  -27.8701 C   0  0  0  0  0  0  0  0  0  0  0  0
  -19.9799   -4.7440  -26.7113 C   0  0  0  0  0  0  0  0  0  0  0  0
  -21.9628   -4.1664  -25.5561 C   0  0  0  0  0  0  0  0  0  0  0  0
  -18.1460   -6.3641  -26.5059 C   0  0  0  0  0  0  0  0  0  0  0  0
  -20.1497   -6.1523  -32.1401 C   0  0  0  0  0  0  0  0  0  0  0  0
  -19.4527   -3.8610  -32.3826 C   0  0  0  0  0  0  0  0  0  0  0  0
  -20.1161   -4.9088  -31.6352 C   0  0  0  0  0  0  0  0  0  0  0  0
  -18.8723   -4.1015  -33.5706 C   0  0  0  0  0  0  0  0  0  0  0  0
  -19.5191   -6.4604  -33.4562 C   0  0  0  0  0  0  0  0  0  0  0  0
  -22.7020   -3.9185  -24.3302 C   0  0  0  0  0  0  0  0  0  0  0  0
  -22.9080   -4.1581  -31.5484 C   0  0  0  0  0  0  0  0  0  0  0  0
  -18.5980   -5.2188  -29.2856 C   0  0  0  0  0  0  0  0  0  0  0  0
  -18.9920   -7.5736  -26.4895 C   0  0  0  0  0  0  0  0  0  0  0  0
  -18.1917   -2.9907  -34.3214 C   0  0  0  0  0  0  0  0  0  0  0  0
  -18.2652   -5.6409  -35.4096 C   0  0  0  0  0  0  0  0  0  0  0  0
  -24.9477   -3.9828  -23.2151 C   0  0  0  0  0  0  0  0  0  0  0  0
  -26.0821   -4.9906  -23.2489 C   0  0  0  0  0  0  0  0  0  0  0  0
  -19.3112   -5.7794  -36.4959 C   0  0  0  0  0  0  0  0  0  0  0  0
  -17.6973   -4.1423  -26.6047 N   0  0  0  0  0  0  0  0  0  0  0  0
  -22.6677   -4.0246  -26.7020 N   0  0  0  0  0  0  0  0  0  0  0  0
  -18.6422   -5.0979  -26.6089 N   0  0  0  0  0  0  0  0  0  0  0  0
  -18.8978   -5.3892  -34.1161 N   0  0  0  0  0  0  0  0  0  0  0  0
  -24.0741   -4.1981  -24.3461 N   0  0  0  0  0  0  0  0  0  0  0  0
  -19.5814   -7.6164  -33.8748 O   0  0  0  0  0  0  0  0  0  0  0  0
  -22.1273   -3.4579  -23.3269 O   0  0  0  0  0  0  0  0  0  0  0  0
  -26.9188   -4.7981  -22.1155 O   0  0  0  0  0  0  0  0  0  0  0  0
  -19.8098   -7.0409  -36.4998 F   0  0  0  0  0  0  0  0  0  0  0  0
  -18.7229   -5.5942  -37.7054 F   0  0  0  0  0  0  0  0  0  0  0  0
  -16.0504   -7.0177  -26.3399 H   0  0  0  0  0  0  0  0  0  0  0  0
  -23.7740   -3.8243  -29.0540 H   0  0  0  0  0  0  0  0  0  0  0  0
  -20.1159   -4.6195  -24.5543 H   0  0  0  0  0  0  0  0  0  0  0  0
  -15.6236   -4.3045  -26.4676 H   0  0  0  0  0  0  0  0  0  0  0  0
  -20.6310   -6.9779  -31.6244 H   0  0  0  0  0  0  0  0  0  0  0  0
  -19.4411   -2.8665  -31.9457 H   0  0  0  0  0  0  0  0  0  0  0  0
  -22.8471   -3.1236  -31.9033 H   0  0  0  0  0  0  0  0  0  0  0  0
  -22.5514   -4.8238  -32.3429 H   0  0  0  0  0  0  0  0  0  0  0  0
  -23.9604   -4.4070  -31.3691 H   0  0  0  0  0  0  0  0  0  0  0  0
  -18.5071   -6.3079  -29.2762 H   0  0  0  0  0  0  0  0  0  0  0  0
  -18.1726   -4.8328  -30.2163 H   0  0  0  0  0  0  0  0  0  0  0  0
  -18.0110   -4.8041  -28.4612 H   0  0  0  0  0  0  0  0  0  0  0  0
  -19.2829   -7.8410  -25.4604 H   0  0  0  0  0  0  0  0  0  0  0  0
  -19.9174   -7.4393  -27.0751 H   0  0  0  0  0  0  0  0  0  0  0  0
  -18.4769   -8.4448  -26.9294 H   0  0  0  0  0  0  0  0  0  0  0  0
  -17.1473   -2.9445  -34.0256 H   0  0  0  0  0  0  0  0  0  0  0  0
  -18.6810   -2.0481  -34.0909 H   0  0  0  0  0  0  0  0  0  0  0  0
  -18.2635   -3.1817  -35.3887 H   0  0  0  0  0  0  0  0  0  0  0  0
  -17.6764   -6.5618  -35.3482 H   0  0  0  0  0  0  0  0  0  0  0  0
  -17.5760   -4.8268  -35.6562 H   0  0  0  0  0  0  0  0  0  0  0  0
  -25.3266   -2.9570  -23.2647 H   0  0  0  0  0  0  0  0  0  0  0  0
  -24.3584   -4.1032  -22.3011 H   0  0  0  0  0  0  0  0  0  0  0  0
  -25.6810   -6.0079  -23.2038 H   0  0  0  0  0  0  0  0  0  0  0  0
  -26.6872   -4.8853  -24.1553 H   0  0  0  0  0  0  0  0  0  0  0  0
  -20.1363   -5.0680  -36.3958 H   0  0  0  0  0  0  0  0  0  0  0  0
  -24.5054   -4.5125  -25.2092 H   0  0  0  0  0  0  0  0  0  0  0  0
  -27.6272   -5.4589  -22.1755 H   0  0  0  0  0  0  0  0  0  0  0  0
  1  4  1  0  0  0  0
  1 12  2  0  0  0  0
  2  7  1  0  0  0  0
  2  9  2  0  0  0  0
  3 10  2  0  0  0  0
  3 11  1  0  0  0  0
  4 27  2  0  0  0  0
  5  8  2  0  0  0  0
  5  9  1  0  0  0  0
  5 10  1  0  0  0  0
  6  7  2  0  0  0  0
  6  8  1  0  0  0  0
  6 15  1  0  0  0  0
  7 19  1  0  0  0  0
  8 20  1  0  0  0  0
  9 28  1  0  0  0  0
 10 29  1  0  0  0  0
 11 18  1  0  0  0  0
 11 28  2  0  0  0  0
 12 21  1  0  0  0  0
 12 29  1  0  0  0  0
 13 15  2  0  0  0  0
 13 17  1  0  0  0  0
 14 15  1  0  0  0  0
 14 16  2  0  0  0  0
 16 22  1  0  0  0  0
 16 30  1  0  0  0  0
 17 30  1  0  0  0  0
 17 32  2  0  0  0  0
 18 31  1  0  0  0  0
 18 33  2  0  0  0  0
 23 26  1  0  0  0  0
 23 30  1  0  0  0  0
 24 25  1  0  0  0  0
 24 31  1  0  0  0  0
 25 34  1  0  0  0  0
 26 35  1  0  0  0  0
 26 36  1  0  0  0  0
 27 29  1  0  0  0  0
  1 37  1  0  0  0  0
  2 38  1  0  0  0  0
  3 39  1  0  0  0  0
  4 40  1  0  0  0  0
 13 41  1  0  0  0  0
 14 42  1  0  0  0  0
 19 43  1  0  0  0  0
 19 44  1  0  0  0  0
 19 45  1  0  0  0  0
 20 46  1  0  0  0  0
 20 47  1  0  0  0  0
 20 48  1  0  0  0  0
 21 49  1  0  0  0  0
 21 50  1  0  0  0  0
 21 51  1  0  0  0  0
 22 52  1  0  0  0  0
 22 53  1  0  0  0  0
 22 54  1  0  0  0  0
 23 55  1  0  0  0  0
 23 56  1  0  0  0  0
 24 57  1  0  0  0  0
 24 58  1  0  0  0  0
 25 59  1  0  0  0  0
 25 60  1  0  0  0  0
 26 61  1  0  0  0  0
 31 62  1  0  0  0  0
 34 63  1  0  0  0  0
M  END
> <SMILES>
CC1=CC(=CC(=O)N1CC(F)F)c1c(cc2nc(cc(c2c1C)-n1nccc1C)C(=O)NCCO)C

> <FORMATTED_ID>
H3D-005714

> <MOLFORMULA>
C26H27F2N5O3

> <Exact Mass>
495.21

> <XLogP>
3.14

> <TPSA_NOPS>
100.3

> <s_m_source_file>
ligprep_h3d.sdf

> <i_m_source_file_index>
869

> <i_lp_mmshare_version>
55123

> <i_f3d_flags>
0

> <s_epik_input>
RltDSF0oRilbQ0gyXW4xYyg9TylbY0hdYyhbY0hdYzFbQ0gzXSktYyhjKFtjSF0yKVtDSDNdKWMoW0NIM10pYyhjMjMpYygtbjRuW2NIXVtjSF1jNFtDSDNdKVtjSF1jKG4zKUMoPU8pW05IXVtDSDJdW0NIMl1bT0hd

> <s_epik_cmdline>
J2VwaWtfcHl0aG9uJywgJy1waHQnLCAnMC41JywgJy1waCcsICc3LjUnLCAnLXRuJywgJzgnLCAnLW1hJywgJzUwMCcsICctaW1hZScsICc8aW5maWxlLm1hZT4nLCAnLW9tYWUnLCAnPG91dGZpbGUubWFlPic=

> <r_lp_tautomer_probability>
1

> <r_epik_Ionization_Penalty>
1.63449e-05

> <r_epik_Ionization_Penalty_Charging>
6.25895e-08

> <r_epik_Ionization_Penalty_Neutral>
1.62823e-05

> <r_epik_State_Penalty>
-0

> <r_epik_Charging_Adjusted_Penalty>
6.25895e-08

> <i_epik_Tot_Q>
0

> <i_epik_Tot_abs_Q>
0

> <s_lp_Force_Field>
S-OPLS

> <r_lp_Energy>
60.6362

> <b_lp_Chiralities_Consistent>
1

> <s_lp_Variant>
ligprep_h3d.sdf:869-1

> <ROCS_ShapeQuery>
_7L13

> <ROCS_TanimotoCombo>
0.801 

> <ROCS_ShapeTanimoto>
0.632 

> <ROCS_ColorTanimoto>
0.169 

> <ROCS_RefTversky>
0.776 

> <ROCS_RefColorTversky>
0.319 

> <ROCS_RefTverskyCombo>
1.094 

> <ROCS_FitTversky>
0.773 

> <ROCS_FitColorTversky>
0.266 

> <ROCS_FitTverskyCombo>
1.039 

> <ROCS_ColorScore>
-2.899

> <ROCS_Overlap>
1288.473

> <ROCS_Rank>
424                 

$$$$
ligprep_h3d.sdf:5048_1327
  -OEChem-08212117123D

 65 69  0     1  0  0  0  0  0999 V2000
  -20.6476   -4.2143  -32.9018 C   0  0  0  0  0  0  0  0  0  0  0  0
  -21.9801   -6.1090  -33.5884 C   0  0  0  0  0  0  0  0  0  0  0  0
  -25.2083   -4.4516  -25.2273 C   0  0  0  0  0  0  0  0  0  0  0  0
  -23.3293   -4.9539  -23.7940 C   0  0  0  0  0  0  0  0  0  0  0  0
  -19.4860   -4.9086  -33.2399 C   0  0  0  0  0  0  0  0  0  0  0  0
  -20.8185   -6.8034  -33.9265 C   0  0  0  0  0  0  0  0  0  0  0  0
  -25.9971   -4.1994  -24.1049 C   0  0  0  0  0  0  0  0  0  0  0  0
  -24.1181   -4.7017  -22.6715 C   0  0  0  0  0  0  0  0  0  0  0  0
  -17.8434   -6.1683  -26.7053 C   0  0  0  0  0  0  0  0  0  0  0  0
  -17.4574   -3.8411  -26.1837 C   0  0  0  0  0  0  0  0  0  0  0  0
  -15.9229   -5.5284  -25.3865 C   0  0  0  0  0  0  0  0  0  0  0  0
  -21.8946   -4.8145  -33.0760 C   0  0  0  0  0  0  0  0  0  0  0  0
  -18.2262   -4.8302  -26.7971 C   0  0  0  0  0  0  0  0  0  0  0  0
  -23.8744   -4.8289  -25.0718 C   0  0  0  0  0  0  0  0  0  0  0  0
  -19.5715   -6.2031  -33.7523 C   0  0  0  0  0  0  0  0  0  0  0  0
  -25.4520   -4.3245  -22.8270 C   0  0  0  0  0  0  0  0  0  0  0  0
  -16.6917   -6.5174  -25.9999 C   0  0  0  0  0  0  0  0  0  0  0  0
  -16.3057   -4.1902  -25.4783 C   0  0  0  0  0  0  0  0  0  0  0  0
  -22.8964   -3.0942  -31.5770 C   0  0  0  0  0  0  0  0  0  0  0  0
  -22.7614   -5.0084  -29.9172 C   0  0  0  0  0  0  0  0  0  0  0  0
  -19.7482   -4.6649  -28.8692 C   0  0  0  0  0  0  0  0  0  0  0  0
  -20.4291   -3.5595  -27.2121 C   0  0  0  0  0  0  0  0  0  0  0  0
  -21.5592   -2.9381  -29.4972 C   0  0  0  0  0  0  0  0  0  0  0  0
  -22.2728   -5.0412  -28.4701 C   0  0  1  0  0  0  0  0  0  0  0  0
  -21.1210   -4.0234  -28.5180 C   0  0  0  0  0  0  0  0  0  0  0  0
  -23.8232   -3.2866  -33.8599 C   0  0  0  0  0  0  0  0  0  0  0  0
  -23.3780   -4.6109  -27.5073 C   0  0  0  0  0  0  0  0  0  0  0  0
  -23.1640   -4.0557  -32.7072 C   0  0  1  0  0  0  0  0  0  0  0  0
  -19.3834   -4.4788  -27.5065 N   0  0  0  0  0  0  0  0  0  0  0  0
  -22.4457   -3.6644  -30.3971 N   0  0  0  0  0  0  0  0  0  0  0  0
  -23.0845   -5.0814  -26.1958 N   0  0  0  0  0  0  0  0  0  0  0  0
  -23.0843   -1.8860  -31.7306 O   0  0  0  0  0  0  0  0  0  0  0  0
  -18.4380   -6.8800  -34.0833 O   0  0  0  0  0  0  0  0  0  0  0  0
  -24.1286   -5.0215  -32.2649 O   0  0  0  0  0  0  0  0  0  0  0  0
  -26.2095   -4.0823  -21.7491 F   0  0  0  0  0  0  0  0  0  0  0  0
  -16.3235   -7.8024  -25.9135 F   0  0  0  0  0  0  0  0  0  0  0  0
  -15.5663   -3.2403  -24.8909 F   0  0  0  0  0  0  0  0  0  0  0  0
  -20.5717   -3.2062  -32.5032 H   0  0  0  0  0  0  0  0  0  0  0  0
  -22.9475   -6.5847  -33.7274 H   0  0  0  0  0  0  0  0  0  0  0  0
  -25.6431   -4.3508  -26.2184 H   0  0  0  0  0  0  0  0  0  0  0  0
  -22.2912   -5.2476  -23.6612 H   0  0  0  0  0  0  0  0  0  0  0  0
  -18.5174   -4.4354  -33.1021 H   0  0  0  0  0  0  0  0  0  0  0  0
  -20.8917   -7.8112  -34.3254 H   0  0  0  0  0  0  0  0  0  0  0  0
  -27.0355   -3.9054  -24.2255 H   0  0  0  0  0  0  0  0  0  0  0  0
  -23.6944   -4.7992  -21.6764 H   0  0  0  0  0  0  0  0  0  0  0  0
  -18.4346   -6.9467  -27.1802 H   0  0  0  0  0  0  0  0  0  0  0  0
  -17.7460   -2.7953  -26.2498 H   0  0  0  0  0  0  0  0  0  0  0  0
  -15.0255   -5.8008  -24.8388 H   0  0  0  0  0  0  0  0  0  0  0  0
  -22.1902   -5.7068  -30.5385 H   0  0  0  0  0  0  0  0  0  0  0  0
  -23.8255   -5.2288  -30.0382 H   0  0  0  0  0  0  0  0  0  0  0  0
  -19.7759   -5.7245  -29.1500 H   0  0  0  0  0  0  0  0  0  0  0  0
  -19.1076   -4.1159  -29.5658 H   0  0  0  0  0  0  0  0  0  0  0  0
  -20.0926   -2.5192  -27.1830 H   0  0  0  0  0  0  0  0  0  0  0  0
  -20.9536   -3.8125  -26.2836 H   0  0  0  0  0  0  0  0  0  0  0  0
  -22.1485   -2.1551  -29.0044 H   0  0  0  0  0  0  0  0  0  0  0  0
  -20.7356   -2.4725  -30.0499 H   0  0  0  0  0  0  0  0  0  0  0  0
  -21.9318   -6.0446  -28.1951 H   0  0  0  0  0  0  0  0  0  0  0  0
  -24.7271   -2.7687  -33.5170 H   0  0  0  0  0  0  0  0  0  0  0  0
  -23.1550   -2.5073  -34.2477 H   0  0  0  0  0  0  0  0  0  0  0  0
  -24.0933   -3.9373  -34.6991 H   0  0  0  0  0  0  0  0  0  0  0  0
  -23.4158   -3.5231  -27.5255 H   0  0  0  0  0  0  0  0  0  0  0  0
  -24.3085   -5.0431  -27.8711 H   0  0  0  0  0  0  0  0  0  0  0  0
  -22.2435   -5.6451  -26.0465 H   0  0  0  0  0  0  0  0  0  0  0  0
  -18.6598   -7.7614  -34.4234 H   0  0  0  0  0  0  0  0  0  0  0  0
  -24.9231   -4.5195  -32.0369 H   0  0  0  0  0  0  0  0  0  0  0  0
  1  5  1  0  0  0  0
  1 12  2  0  0  0  0
  2  6  2  0  0  0  0
  2 12  1  0  0  0  0
  3  7  1  0  0  0  0
  3 14  2  0  0  0  0
  4  8  2  0  0  0  0
  4 14  1  0  0  0  0
  5 15  2  0  0  0  0
  6 15  1  0  0  0  0
  7 16  2  0  0  0  0
  8 16  1  0  0  0  0
  9 13  2  0  0  0  0
  9 17  1  0  0  0  0
 10 13  1  0  0  0  0
 10 18  2  0  0  0  0
 11 17  2  0  0  0  0
 11 18  1  0  0  0  0
 12 28  1  0  0  0  0
 13 29  1  0  0  0  0
 14 31  1  0  0  0  0
 15 33  1  0  0  0  0
 16 35  1  0  0  0  0
 17 36  1  0  0  0  0
 18 37  1  0  0  0  0
 19 28  1  0  0  0  0
 19 30  1  0  0  0  0
 19 32  2  0  0  0  0
 20 24  1  0  0  0  0
 20 30  1  0  0  0  0
 21 25  1  0  0  0  0
 21 29  1  0  0  0  0
 22 25  1  0  0  0  0
 22 29  1  0  0  0  0
 23 25  1  0  0  0  0
 23 30  1  0  0  0  0
 24 25  1  0  0  0  0
 24 27  1  0  0  0  0
 26 28  1  0  0  0  0
 27 31  1  0  0  0  0
 28 34  1  0  0  0  0
  1 38  1  0  0  0  0
  2 39  1  0  0  0  0
  3 40  1  0  0  0  0
  4 41  1  0  0  0  0
  5 42  1  0  0  0  0
  6 43  1  0  0  0  0
  7 44  1  0  0  0  0
  8 45  1  0  0  0  0
  9 46  1  0  0  0  0
 10 47  1  0  0  0  0
 11 48  1  0  0  0  0
 20 49  1  0  0  0  0
 20 50  1  0  0  0  0
 21 51  1  0  0  0  0
 21 52  1  0  0  0  0
 22 53  1  0  0  0  0
 22 54  1  0  0  0  0
 23 55  1  0  0  0  0
 23 56  1  0  0  0  0
 24 57  1  0  0  0  0
 26 58  1  0  0  0  0
 26 59  1  0  0  0  0
 26 60  1  0  0  0  0
 27 61  1  0  0  0  0
 27 62  1  0  0  0  0
 31 63  1  0  0  0  0
 33 64  1  0  0  0  0
 34 65  1  0  0  0  0
M  END
> <SMILES>
CC(O)(C(=O)N1CC(CNc2ccc(cc2)F)C2(C1)CN(C2)c1cc(cc(c1)F)F)c1ccc(cc1)O

> <FORMATTED_ID>
H3D-009396

> <MOLFORMULA>
C28H28F3N3O3

> <Exact Mass>
511.21

> <XLogP>
3.69

> <TPSA_NOPS>
76

> <s_m_source_file>
ligprep_h3d.sdf

> <i_m_source_file_index>
5048

> <i_lp_mmshare_version>
55123

> <i_f3d_flags>
0

> <s_epik_input>
W2NIXTFbY0hdYyhbT0hdKVtjSF1bY0hdYzFbQ0BAXShbQ0gzXSkoW09IXSlDKD1PKU4oW0NIMl0yKVtDSDJdW0NASF0oW0NIMl1bTkhdYzNbY0hdW2NIXWMoRilbY0hdW2NIXTMpQzI0W0NIMl1OKFtDSDJdNCljNVtjSF1jKEYpW2NIXWMoRilbY0hdNQ==

> <s_epik_cmdline>
J2VwaWtfcHl0aG9uJywgJy1waHQnLCAnMC41JywgJy1waCcsICc3LjUnLCAnLXRuJywgJzgnLCAnLW1hJywgJzUwMCcsICctaW1hZScsICc8aW5maWxlLm1hZT4nLCAnLW9tYWUnLCAnPG91dGZpbGUubWFlPic=

> <r_lp_tautomer_probability>
1

> <r_epik_Ionization_Penalty>
0.00418528

> <r_epik_Ionization_Penalty_Charging>
0

> <r_epik_Ionization_Penalty_Neutral>
0.00418528

> <r_epik_State_Penalty>
-0

> <r_epik_Charging_Adjusted_Penalty>
0

> <i_epik_Tot_Q>
0

> <i_epik_Tot_abs_Q>
0

> <s_lp_Force_Field>
S-OPLS

> <r_lp_Energy>
46.5565

> <b_lp_Chiralities_Consistent>
1

> <s_lp_Variant>
ligprep_h3d.sdf:5048-1

> <ROCS_ShapeQuery>
_7L13

> <ROCS_TanimotoCombo>
0.680 

> <ROCS_ShapeTanimoto>
0.623 

> <ROCS_ColorTanimoto>
0.058 

> <ROCS_RefTversky>
0.776 

> <ROCS_RefColorTversky>
0.120 

> <ROCS_RefTverskyCombo>
0.896 

> <ROCS_FitTversky>
0.759 

> <ROCS_FitColorTversky>
0.100 

> <ROCS_FitTverskyCombo>
0.859 

> <ROCS_ColorScore>
-1.093

> <ROCS_Overlap>
1289.763

> <ROCS_Rank>
425                 

$$$$
ligprep_h3d.sdf:1055_14
  -OEChem-08212117123D

 58 64  0     1  0  0  0  0  0999 V2000
  -21.0064   -5.1744  -29.4973 C   0  0  0  0  0  0  0  0  0  0  0  0
  -21.7582   -4.3974  -30.3812 C   0  0  0  0  0  0  0  0  0  0  0  0
  -21.1161   -4.9233  -28.1084 C   0  0  0  0  0  0  0  0  0  0  0  0
  -21.9879   -3.9424  -27.5791 C   0  0  0  0  0  0  0  0  0  0  0  0
  -22.5798   -3.4214  -29.8615 C   0  0  0  0  0  0  0  0  0  0  0  0
  -22.7235   -3.1586  -28.4990 C   0  0  0  0  0  0  0  0  0  0  0  0
  -21.9486   -4.2906  -31.7715 C   0  0  0  0  0  0  0  0  0  0  0  0
  -18.9026   -3.8687  -26.2367 C   0  0  0  0  0  0  0  0  0  0  0  0
  -19.2744   -6.0671  -24.9996 C   0  0  0  0  0  0  0  0  0  0  0  0
  -17.0801   -5.2426  -25.8225 C   0  0  0  0  0  0  0  0  0  0  0  0
  -20.9109   -6.3876  -32.5159 C   0  0  0  0  0  0  0  0  0  0  0  0
  -20.2808   -5.7642  -27.1804 C   0  0  0  0  0  0  0  0  0  0  0  0
  -23.0385   -2.7771  -25.6501 C   0  0  0  0  0  0  0  0  0  0  0  0
  -19.7016   -3.8531  -34.1503 C   0  0  0  0  0  0  0  0  0  0  0  0
  -19.4018   -5.6851  -35.5121 C   0  0  0  0  0  0  0  0  0  0  0  0
  -20.9976   -4.6553  -34.0535 C   0  0  1  0  0  0  0  0  0  0  0  0
  -21.2147   -4.4701  -25.2320 C   0  0  2  0  0  0  0  0  0  0  0  0
  -20.6787   -5.9517  -34.7537 C   0  0  2  0  0  0  0  0  0  0  0  0
  -23.4136   -3.0827  -24.1970 C   0  0  1  0  0  0  0  0  0  0  0  0
  -21.0434   -3.5314  -24.0017 C   0  0  2  0  0  0  0  0  0  0  0  0
  -19.8979   -5.0004  -25.8887 C   0  0  2  0  0  0  0  0  0  0  0  0
  -24.4149   -4.2301  -24.0778 C   0  0  0  0  0  0  0  0  0  0  0  0
  -20.0908   -4.0103  -22.9135 C   0  0  0  0  0  0  0  0  0  0  0  0
  -22.8157   -3.3254  -32.0917 N   0  0  0  0  0  0  0  0  0  0  0  0
  -17.6460   -4.2376  -26.4920 N   0  5  0  0  0  0  0  0  0  0  0  0
  -17.8948   -6.0743  -25.0564 N   0  0  0  0  0  0  0  0  0  0  0  0
  -22.0944   -3.7589  -26.1982 N   0  0  3  0  0  0  0  0  0  0  0  0
  -21.3208   -5.0766  -32.7177 N   0  0  0  0  0  0  0  0  0  0  0  0
  -19.2941   -2.7106  -26.3794 O   0  0  0  0  0  0  0  0  0  0  0  0
  -19.9219   -6.8905  -24.3569 O   0  0  0  0  0  0  0  0  0  0  0  0
  -15.8698   -5.4794  -25.8669 O   0  0  0  0  0  0  0  0  0  0  0  0
  -20.9461   -7.0358  -31.4781 O   0  0  0  0  0  0  0  0  0  0  0  0
  -23.2125   -2.7749  -30.8786 O   0  0  0  0  0  0  0  0  0  0  0  0
  -20.4246   -6.8906  -33.6986 O   0  0  0  0  0  0  0  0  0  0  0  0
  -18.7082   -4.7027  -34.7350 O   0  0  0  0  0  0  0  0  0  0  0  0
  -22.3059   -3.3583  -23.3446 O   0  0  0  0  0  0  0  0  0  0  0  0
  -23.4732   -2.1107  -28.1371 F   0  0  0  0  0  0  0  0  0  0  0  0
  -20.3430   -5.9496  -29.8696 H   0  0  0  0  0  0  0  0  0  0  0  0
  -20.8572   -6.6684  -26.9421 H   0  0  0  0  0  0  0  0  0  0  0  0
  -19.3752   -6.1019  -27.7015 H   0  0  0  0  0  0  0  0  0  0  0  0
  -23.9500   -2.8079  -26.2819 H   0  0  0  0  0  0  0  0  0  0  0  0
  -22.7100   -1.7270  -25.6944 H   0  0  0  0  0  0  0  0  0  0  0  0
  -19.8379   -2.9904  -34.8122 H   0  0  0  0  0  0  0  0  0  0  0  0
  -19.3375   -3.4795  -33.1882 H   0  0  0  0  0  0  0  0  0  0  0  0
  -18.7652   -6.5676  -35.6185 H   0  0  0  0  0  0  0  0  0  0  0  0
  -19.6033   -5.2544  -36.4987 H   0  0  0  0  0  0  0  0  0  0  0  0
  -21.8405   -4.1121  -34.4932 H   0  0  0  0  0  0  0  0  0  0  0  0
  -21.8032   -5.3393  -24.8964 H   0  0  0  0  0  0  0  0  0  0  0  0
  -21.4820   -6.3486  -35.3810 H   0  0  0  0  0  0  0  0  0  0  0  0
  -23.9478   -2.1672  -23.7637 H   0  0  0  0  0  0  0  0  0  0  0  0
  -20.6974   -2.5297  -24.3148 H   0  0  0  0  0  0  0  0  0  0  0  0
  -23.9791   -5.1480  -24.4726 H   0  0  0  0  0  0  0  0  0  0  0  0
  -25.3184   -3.9968  -24.6413 H   0  0  0  0  0  0  0  0  0  0  0  0
  -24.6806   -4.3861  -23.0321 H   0  0  0  0  0  0  0  0  0  0  0  0
  -20.3880   -5.0001  -22.5666 H   0  0  0  0  0  0  0  0  0  0  0  0
  -20.1102   -3.3197  -22.0703 H   0  0  0  0  0  0  0  0  0  0  0  0
  -19.0744   -4.0630  -23.3042 H   0  0  0  0  0  0  0  0  0  0  0  0
  -17.4219   -6.7611  -24.4764 H   0  0  0  0  0  0  0  0  0  0  0  0
  1  2  2  0  0  0  0
  1  3  1  0  0  0  0
  2  5  1  0  0  0  0
  2  7  1  0  0  0  0
  3  4  2  0  0  0  0
  3 12  1  0  0  0  0
  4  6  1  0  0  0  0
  4 27  1  0  0  0  0
  5  6  2  0  0  0  0
  5 33  1  0  0  0  0
  6 37  1  0  0  0  0
  7 24  2  0  0  0  0
  7 28  1  0  0  0  0
  8 21  1  0  0  0  0
  8 25  1  0  0  0  0
  8 29  2  0  0  0  0
  9 21  1  0  0  0  0
  9 26  1  0  0  0  0
  9 30  2  0  0  0  0
 10 25  1  0  0  0  0
 10 26  1  0  0  0  0
 10 31  2  0  0  0  0
 11 28  1  0  0  0  0
 11 32  2  0  0  0  0
 11 34  1  0  0  0  0
 12 21  1  0  0  0  0
 13 19  1  0  0  0  0
 13 27  1  0  0  0  0
 14 16  1  0  0  0  0
 14 35  1  0  0  0  0
 15 18  1  0  0  0  0
 15 35  1  0  0  0  0
 16 18  1  0  0  0  0
 16 28  1  0  0  0  0
 17 20  1  0  0  0  0
 17 21  1  0  0  0  0
 17 27  1  0  0  0  0
 18 34  1  0  0  0  0
 19 22  1  0  0  0  0
 19 36  1  0  0  0  0
 20 23  1  0  0  0  0
 20 36  1  0  0  0  0
 24 33  1  0  0  0  0
  1 38  1  0  0  0  0
 12 39  1  0  0  0  0
 12 40  1  0  0  0  0
 13 41  1  0  0  0  0
 13 42  1  0  0  0  0
 14 43  1  0  0  0  0
 14 44  1  0  0  0  0
 15 45  1  0  0  0  0
 15 46  1  0  0  0  0
 16 47  1  0  0  0  0
 17 48  1  0  0  0  0
 18 49  1  0  0  0  0
 19 50  1  0  0  0  0
 20 51  1  0  0  0  0
 22 52  1  0  0  0  0
 22 53  1  0  0  0  0
 22 54  1  0  0  0  0
 23 55  1  0  0  0  0
 23 56  1  0  0  0  0
 23 57  1  0  0  0  0
 26 58  1  0  0  0  0
M  CHG  1  25  -1
M  END
> <SMILES>
C[C@@H]1CN2[C@H]([C@H](C)O1)C1(Cc3cc4c(noc4c(c32)F)N2[C@H]3COC[C@H]3OC2=O)C(=O)NC(=O)NC1=O

> <FORMATTED_ID>
H3D-006617

> <MOLFORMULA>
C23H22FN5O8

> <Exact Mass>
515.15

> <XLogP>
-0.12

> <TPSA_NOPS>
152.8

> <s_m_source_file>
ligprep_h3d.sdf

> <i_m_source_file_index>
1055

> <i_lp_mmshare_version>
55123

> <i_f3d_flags>
0

> <s_epik_input>
Tz1DMVtOSF1DKD1PKVtOSF1DKD1PKUMxMltDQEBIXTNOKFtDSDJdW0NAQEhdKFtDSDNdKU9bQ0BIXTNbQ0gzXSljNGMoW0NIMl0yKVtjSF1jNWMoYzRGKW9uYzVONkMoPU8pT1tDQEBIXShbQ0BASF02NylbQ0gyXU9bQ0gyXTc=

> <s_epik_cmdline>
J2VwaWtfcHl0aG9uJywgJy1waHQnLCAnMC41JywgJy1waCcsICc3LjUnLCAnLXRuJywgJzgnLCAnLW1hJywgJzUwMCcsICctaW1hZScsICc8aW5maWxlLm1hZT4nLCAnLW9tYWUnLCAnPG91dGZpbGUubWFlPic=

> <r_lp_tautomer_probability>
1

> <r_epik_Ionization_Penalty>
0.455388

> <r_epik_Ionization_Penalty_Charging>
0.455373

> <r_epik_Ionization_Penalty_Neutral>
1.46169e-05

> <r_epik_State_Penalty>
0.458483

> <r_epik_Charging_Adjusted_Penalty>
0.913857

> <i_epik_Tot_Q>
-1

> <i_epik_Tot_abs_Q>
1

> <s_epik_Chemistry_Notes>
This compound has an ester and may undergo hydrolysis at high or low pH.

> <s_lp_Force_Field>
S-OPLS

> <r_lp_Energy>
34.6924

> <b_lp_Chiralities_Consistent>
1

> <s_lp_Variant>
ligprep_h3d.sdf:1055-2

> <ROCS_ShapeQuery>
_7L13

> <ROCS_TanimotoCombo>
0.717 

> <ROCS_ShapeTanimoto>
0.598 

> <ROCS_ColorTanimoto>
0.119 

> <ROCS_RefTversky>
0.775 

> <ROCS_RefColorTversky>
0.295 

> <ROCS_RefTverskyCombo>
1.070 

> <ROCS_FitTversky>
0.724 

> <ROCS_FitColorTversky>
0.166 

> <ROCS_FitTverskyCombo>
0.889 

> <ROCS_ColorScore>
-2.776

> <ROCS_Overlap>
1292.750

> <ROCS_Rank>
426                 

$$$$
ligprep_h3d.sdf:5537_152
  -OEChem-08212117123D

 60 64  0     0  0  0  0  0  0999 V2000
  -15.3755   -2.9088  -25.7819 C   0  0  0  0  0  0  0  0  0  0  0  0
  -16.2177   -3.0170  -24.6754 C   0  0  0  0  0  0  0  0  0  0  0  0
  -15.6188   -3.6760  -26.9212 C   0  0  0  0  0  0  0  0  0  0  0  0
  -25.5467   -5.5811  -24.4095 C   0  0  0  0  0  0  0  0  0  0  0  0
  -24.5014   -4.3169  -22.6358 C   0  0  0  0  0  0  0  0  0  0  0  0
  -19.6012   -5.7085  -35.6528 C   0  0  0  0  0  0  0  0  0  0  0  0
  -20.3718   -7.9494  -35.1820 C   0  0  0  0  0  0  0  0  0  0  0  0
  -24.8292   -4.8482  -25.3548 C   0  0  0  0  0  0  0  0  0  0  0  0
  -23.7838   -3.5840  -23.5811 C   0  0  0  0  0  0  0  0  0  0  0  0
  -20.2057   -5.2544  -34.4807 C   0  0  0  0  0  0  0  0  0  0  0  0
  -20.9762   -7.4953  -34.0098 C   0  0  0  0  0  0  0  0  0  0  0  0
  -17.3031   -3.8925  -24.7079 C   0  0  0  0  0  0  0  0  0  0  0  0
  -16.7042   -4.5515  -26.9538 C   0  0  0  0  0  0  0  0  0  0  0  0
  -20.2115   -5.3479  -29.0720 C   0  0  0  0  0  0  0  0  0  0  0  0
  -22.5697   -3.8170  -28.9740 C   0  0  0  0  0  0  0  0  0  0  0  0
  -20.6985   -4.8847  -27.8458 C   0  0  0  0  0  0  0  0  0  0  0  0
  -25.3829   -5.3154  -23.0500 C   0  0  0  0  0  0  0  0  0  0  0  0
  -19.6843   -7.0561  -36.0036 C   0  0  0  0  0  0  0  0  0  0  0  0
  -23.9477   -3.8497  -24.9406 C   0  0  0  0  0  0  0  0  0  0  0  0
  -20.8932   -6.1477  -33.6591 C   0  0  0  0  0  0  0  0  0  0  0  0
  -21.8653   -4.1301  -27.8215 C   0  0  0  0  0  0  0  0  0  0  0  0
  -17.5464   -4.6598  -25.8472 C   0  0  0  0  0  0  0  0  0  0  0  0
  -20.9645   -4.9989  -30.1868 C   0  0  0  0  0  0  0  0  0  0  0  0
  -20.3111   -4.9690  -26.4912 C   0  0  0  0  0  0  0  0  0  0  0  0
  -26.1493   -6.0988  -22.0386 C   0  0  0  0  0  0  0  0  0  0  0  0
  -19.0380   -7.5425  -37.2564 C   0  0  0  0  0  0  0  0  0  0  0  0
  -23.1728   -3.0605  -25.9610 C   0  0  0  0  0  0  0  0  0  0  0  0
  -21.5417   -5.6588  -32.3975 C   0  0  0  0  0  0  0  0  0  0  0  0
  -22.1024   -4.2631  -30.1646 N   0  0  0  0  0  0  0  0  0  0  0  0
  -21.1489   -4.3293  -25.6714 N   0  0  0  0  0  0  0  0  0  0  0  0
  -22.0788   -3.8320  -26.5044 N   0  0  0  0  0  0  0  0  0  0  0  0
  -18.5085   -6.8342  -26.8206 O   0  0  0  0  0  0  0  0  0  0  0  0
  -19.2107   -6.1575  -24.4968 O   0  0  0  0  0  0  0  0  0  0  0  0
  -20.5370   -5.4270  -31.4190 O   0  0  0  0  0  0  0  0  0  0  0  0
  -18.9331   -5.7820  -25.8872 S   0  0  0  0  0  0  0  0  0  0  0  0
  -14.5297   -2.2278  -25.7570 H   0  0  0  0  0  0  0  0  0  0  0  0
  -16.0280   -2.4207  -23.7877 H   0  0  0  0  0  0  0  0  0  0  0  0
  -14.9625   -3.5921  -27.7823 H   0  0  0  0  0  0  0  0  0  0  0  0
  -26.2316   -6.3571  -24.7414 H   0  0  0  0  0  0  0  0  0  0  0  0
  -24.3666   -4.1043  -21.5785 H   0  0  0  0  0  0  0  0  0  0  0  0
  -19.0679   -5.0052  -36.2871 H   0  0  0  0  0  0  0  0  0  0  0  0
  -20.4401   -9.0013  -35.4470 H   0  0  0  0  0  0  0  0  0  0  0  0
  -24.9621   -5.0634  -26.4116 H   0  0  0  0  0  0  0  0  0  0  0  0
  -23.0991   -2.8077  -23.2500 H   0  0  0  0  0  0  0  0  0  0  0  0
  -20.1343   -4.2031  -34.2147 H   0  0  0  0  0  0  0  0  0  0  0  0
  -21.5099   -8.1979  -33.3752 H   0  0  0  0  0  0  0  0  0  0  0  0
  -17.9525   -3.9698  -23.8400 H   0  0  0  0  0  0  0  0  0  0  0  0
  -16.8835   -5.1453  -27.8460 H   0  0  0  0  0  0  0  0  0  0  0  0
  -19.3083   -5.9413  -29.1508 H   0  0  0  0  0  0  0  0  0  0  0  0
  -23.4796   -3.2324  -28.9850 H   0  0  0  0  0  0  0  0  0  0  0  0
  -25.5842   -6.9891  -21.7365 H   0  0  0  0  0  0  0  0  0  0  0  0
  -26.3572   -5.4984  -21.1434 H   0  0  0  0  0  0  0  0  0  0  0  0
  -27.1202   -6.4216  -22.4368 H   0  0  0  0  0  0  0  0  0  0  0  0
  -18.0059   -7.8560  -37.0570 H   0  0  0  0  0  0  0  0  0  0  0  0
  -19.5842   -8.3944  -37.6818 H   0  0  0  0  0  0  0  0  0  0  0  0
  -19.0214   -6.7598  -38.0261 H   0  0  0  0  0  0  0  0  0  0  0  0
  -23.8168   -2.7464  -26.7913 H   0  0  0  0  0  0  0  0  0  0  0  0
  -22.7607   -2.1433  -25.5229 H   0  0  0  0  0  0  0  0  0  0  0  0
  -22.0897   -4.7270  -32.5744 H   0  0  0  0  0  0  0  0  0  0  0  0
  -22.2521   -6.3994  -32.0145 H   0  0  0  0  0  0  0  0  0  0  0  0
  1  2  2  0  0  0  0
  1  3  1  0  0  0  0
  2 12  1  0  0  0  0
  3 13  2  0  0  0  0
  4  8  1  0  0  0  0
  4 17  2  0  0  0  0
  5  9  2  0  0  0  0
  5 17  1  0  0  0  0
  6 10  1  0  0  0  0
  6 18  2  0  0  0  0
  7 11  2  0  0  0  0
  7 18  1  0  0  0  0
  8 19  2  0  0  0  0
  9 19  1  0  0  0  0
 10 20  2  0  0  0  0
 11 20  1  0  0  0  0
 12 22  2  0  0  0  0
 13 22  1  0  0  0  0
 14 16  2  0  0  0  0
 14 23  1  0  0  0  0
 15 21  2  0  0  0  0
 15 29  1  0  0  0  0
 16 21  1  0  0  0  0
 16 24  1  0  0  0  0
 17 25  1  0  0  0  0
 18 26  1  0  0  0  0
 19 27  1  0  0  0  0
 20 28  1  0  0  0  0
 21 31  1  0  0  0  0
 22 35  1  0  0  0  0
 23 29  2  0  0  0  0
 23 34  1  0  0  0  0
 24 30  2  0  0  0  0
 24 35  1  0  0  0  0
 27 31  1  0  0  0  0
 28 34  1  0  0  0  0
 30 31  1  0  0  0  0
 32 35  2  0  0  0  0
 33 35  2  0  0  0  0
  1 36  1  0  0  0  0
  2 37  1  0  0  0  0
  3 38  1  0  0  0  0
  4 39  1  0  0  0  0
  5 40  1  0  0  0  0
  6 41  1  0  0  0  0
  7 42  1  0  0  0  0
  8 43  1  0  0  0  0
  9 44  1  0  0  0  0
 10 45  1  0  0  0  0
 11 46  1  0  0  0  0
 12 47  1  0  0  0  0
 13 48  1  0  0  0  0
 14 49  1  0  0  0  0
 15 50  1  0  0  0  0
 25 51  1  0  0  0  0
 25 52  1  0  0  0  0
 25 53  1  0  0  0  0
 26 54  1  0  0  0  0
 26 55  1  0  0  0  0
 26 56  1  0  0  0  0
 27 57  1  0  0  0  0
 27 58  1  0  0  0  0
 28 59  1  0  0  0  0
 28 60  1  0  0  0  0
M  END
> <SMILES>
Cc1ccc(cc1)COc1cc2c(nn(c2cn1)Cc1ccc(cc1)C)S(=O)(=O)c1ccccc1

> <FORMATTED_ID>
H3D-012729

> <MOLFORMULA>
C28H25N3O3S

> <Exact Mass>
483.16

> <XLogP>
6.36

> <TPSA_NOPS>
82.5

> <s_m_source_file>
ligprep_h3d.sdf

> <i_m_source_file_index>
5537

> <i_lp_mmshare_version>
55123

> <i_f3d_flags>
0

> <s_epik_input>
W0NIM11jMVtjSF1bY0hdYyhbY0hdW2NIXTEpW0NIMl1PYyhbY0hdMiluW2NIXWMoYzIzKW4oW0NIMl1jNFtjSF1bY0hdYyhbQ0gzXSlbY0hdW2NIXTQpbmMzUyg9TykoPU8pYzVbY0hdW2NIXVtjSF1bY0hdW2NIXTU=

> <s_epik_cmdline>
J2VwaWtfcHl0aG9uJywgJy1waHQnLCAnMC41JywgJy1waCcsICc3LjUnLCAnLXRuJywgJzgnLCAnLW1hJywgJzUwMCcsICctaW1hZScsICc8aW5maWxlLm1hZT4nLCAnLW9tYWUnLCAnPG91dGZpbGUubWFlPic=

> <r_lp_tautomer_probability>
1

> <r_epik_Ionization_Penalty>
2.0581e-12

> <r_epik_Ionization_Penalty_Charging>
0

> <r_epik_Ionization_Penalty_Neutral>
2.0581e-12

> <r_epik_State_Penalty>
-0

> <r_epik_Charging_Adjusted_Penalty>
0

> <i_epik_Tot_Q>
0

> <i_epik_Tot_abs_Q>
0

> <s_lp_Force_Field>
S-OPLS

> <r_lp_Energy>
31.1303

> <b_lp_Chiralities_Consistent>
1

> <s_lp_Variant>
ligprep_h3d.sdf:5537-1

> <ROCS_ShapeQuery>
_7L13

> <ROCS_TanimotoCombo>
0.768 

> <ROCS_ShapeTanimoto>
0.651 

> <ROCS_ColorTanimoto>
0.116 

> <ROCS_RefTversky>
0.775 

> <ROCS_RefColorTversky>
0.219 

> <ROCS_RefTverskyCombo>
0.994 

> <ROCS_FitTversky>
0.803 

> <ROCS_FitColorTversky>
0.199 

> <ROCS_FitTverskyCombo>
1.002 

> <ROCS_ColorScore>
-1.983

> <ROCS_Overlap>
1285.117

> <ROCS_Rank>
427                 

$$$$
ligprep_h3d.sdf:2918_1838
  -OEChem-08212117123D

 62 66  0     0  0  0  0  0  0999 V2000
  -19.1527   -3.0107  -25.3274 C   0  0  0  0  0  0  0  0  0  0  0  0
  -20.4961   -4.9008  -26.0055 C   0  0  0  0  0  0  0  0  0  0  0  0
  -18.0691   -3.8605  -25.1054 C   0  0  0  0  0  0  0  0  0  0  0  0
  -19.4125   -5.7506  -25.7835 C   0  0  0  0  0  0  0  0  0  0  0  0
  -20.1305   -6.7660  -32.8427 C   0  0  0  0  0  0  0  0  0  0  0  0
  -20.1053   -7.8625  -33.7045 C   0  0  0  0  0  0  0  0  0  0  0  0
  -25.5349   -5.1713  -24.9561 C   0  0  0  0  0  0  0  0  0  0  0  0
  -23.2917   -3.9128  -23.7425 C   0  0  0  0  0  0  0  0  0  0  0  0
  -19.9776   -6.3698  -35.5999 C   0  0  0  0  0  0  0  0  0  0  0  0
  -20.3662   -3.5308  -25.7774 C   0  0  0  0  0  0  0  0  0  0  0  0
  -18.1990   -5.2304  -25.3335 C   0  0  0  0  0  0  0  0  0  0  0  0
  -20.0793   -5.4714  -33.3595 C   0  0  0  0  0  0  0  0  0  0  0  0
  -24.5791   -4.5082  -25.7442 C   0  0  0  0  0  0  0  0  0  0  0  0
  -23.4911   -3.9010  -25.1234 C   0  0  0  0  0  0  0  0  0  0  0  0
  -20.0028   -5.2733  -34.7381 C   0  0  0  0  0  0  0  0  0  0  0  0
  -25.3553   -5.1959  -23.5674 C   0  0  0  0  0  0  0  0  0  0  0  0
  -24.2529   -4.5771  -22.9734 C   0  0  0  0  0  0  0  0  0  0  0  0
  -20.0289   -7.6644  -35.0831 C   0  0  0  0  0  0  0  0  0  0  0  0
  -23.4241   -3.6468  -27.3201 C   0  0  0  0  0  0  0  0  0  0  0  0
  -23.2479   -4.9014  -30.2705 C   0  0  0  0  0  0  0  0  0  0  0  0
  -23.0625   -2.4490  -30.8465 C   0  0  0  0  0  0  0  0  0  0  0  0
  -21.8130   -5.1117  -30.7403 C   0  0  0  0  0  0  0  0  0  0  0  0
  -21.6257   -2.6754  -31.3010 C   0  0  0  0  0  0  0  0  0  0  0  0
  -23.5180   -3.4695  -29.8016 C   0  0  0  0  0  0  0  0  0  0  0  0
  -21.5357   -2.6147  -26.0175 C   0  0  0  0  0  0  0  0  0  0  0  0
  -20.1097   -4.3314  -32.3845 C   0  0  0  0  0  0  0  0  0  0  0  0
  -17.0394   -6.1382  -25.0975 C   0  0  0  0  0  0  0  0  0  0  0  0
  -24.5203   -4.3400  -27.1086 N   0  0  0  0  0  0  0  0  0  0  0  0
  -22.7692   -3.3581  -26.1552 N   0  0  0  0  0  0  0  0  0  0  0  0
  -22.8998   -3.2102  -28.5215 N   0  0  0  0  0  0  0  0  0  0  0  0
  -21.4748   -4.0919  -31.8003 N   0  3  0  0  0  0  0  0  0  0  0  0
  -19.9548   -4.0907  -35.2333 O   0  5  0  0  0  0  0  0  0  0  0  0
  -26.2550   -5.8240  -22.7978 F   0  0  0  0  0  0  0  0  0  0  0  0
  -24.1120   -4.6207  -21.6409 F   0  0  0  0  0  0  0  0  0  0  0  0
  -15.9182   -5.4919  -24.6604 F   0  0  0  0  0  0  0  0  0  0  0  0
  -17.2819   -7.1028  -24.1613 F   0  0  0  0  0  0  0  0  0  0  0  0
  -16.6597   -6.8087  -26.2241 F   0  0  0  0  0  0  0  0  0  0  0  0
  -19.9978   -9.0187  -36.1449 Cl  0  0  0  0  0  0  0  0  0  0  0  0
  -19.0425   -1.9446  -25.1468 H   0  0  0  0  0  0  0  0  0  0  0  0
  -21.4376   -5.3143  -26.3575 H   0  0  0  0  0  0  0  0  0  0  0  0
  -17.1271   -3.4460  -24.7565 H   0  0  0  0  0  0  0  0  0  0  0  0
  -19.5221   -6.8168  -25.9637 H   0  0  0  0  0  0  0  0  0  0  0  0
  -20.1902   -6.9323  -31.7703 H   0  0  0  0  0  0  0  0  0  0  0  0
  -20.1459   -8.8656  -33.2877 H   0  0  0  0  0  0  0  0  0  0  0  0
  -26.3946   -5.6553  -25.4081 H   0  0  0  0  0  0  0  0  0  0  0  0
  -22.4367   -3.4330  -23.2800 H   0  0  0  0  0  0  0  0  0  0  0  0
  -19.9180   -6.2291  -36.6792 H   0  0  0  0  0  0  0  0  0  0  0  0
  -23.9295   -5.1355  -31.0989 H   0  0  0  0  0  0  0  0  0  0  0  0
  -23.4842   -5.6163  -29.4729 H   0  0  0  0  0  0  0  0  0  0  0  0
  -23.1710   -1.4291  -30.4579 H   0  0  0  0  0  0  0  0  0  0  0  0
  -23.7264   -2.5138  -31.7187 H   0  0  0  0  0  0  0  0  0  0  0  0
  -21.0902   -4.9983  -29.9249 H   0  0  0  0  0  0  0  0  0  0  0  0
  -21.6994   -6.1033  -31.1907 H   0  0  0  0  0  0  0  0  0  0  0  0
  -21.3787   -2.0068  -32.1324 H   0  0  0  0  0  0  0  0  0  0  0  0
  -20.9048   -2.5273  -30.4895 H   0  0  0  0  0  0  0  0  0  0  0  0
  -24.6169   -3.3529  -29.6631 H   0  0  0  0  0  0  0  0  0  0  0  0
  -21.6553   -1.9010  -25.1934 H   0  0  0  0  0  0  0  0  0  0  0  0
  -21.3916   -2.0185  -26.9268 H   0  0  0  0  0  0  0  0  0  0  0  0
  -19.4343   -4.5132  -31.5416 H   0  0  0  0  0  0  0  0  0  0  0  0
  -19.8030   -3.3945  -32.8618 H   0  0  0  0  0  0  0  0  0  0  0  0
  -22.0385   -2.6821  -28.5140 H   0  0  0  0  0  0  0  0  0  0  0  0
  -22.1460   -4.2177  -32.5706 H   0  0  0  0  0  0  0  0  0  0  0  0
  1  3  1  0  0  0  0
  1 10  2  0  0  0  0
  2  4  2  0  0  0  0
  2 10  1  0  0  0  0
  3 11  2  0  0  0  0
  4 11  1  0  0  0  0
  5  6  1  0  0  0  0
  5 12  2  0  0  0  0
  6 18  2  0  0  0  0
  7 13  2  0  0  0  0
  7 16  1  0  0  0  0
  8 14  2  0  0  0  0
  8 17  1  0  0  0  0
  9 15  2  0  0  0  0
  9 18  1  0  0  0  0
 10 25  1  0  0  0  0
 11 27  1  0  0  0  0
 12 15  1  0  0  0  0
 12 26  1  0  0  0  0
 13 14  1  0  0  0  0
 13 28  1  0  0  0  0
 14 29  1  0  0  0  0
 15 32  1  0  0  0  0
 16 17  2  0  0  0  0
 16 33  1  0  0  0  0
 17 34  1  0  0  0  0
 18 38  1  0  0  0  0
 19 28  2  0  0  0  0
 19 29  1  0  0  0  0
 19 30  1  0  0  0  0
 20 22  1  0  0  0  0
 20 24  1  0  0  0  0
 21 23  1  0  0  0  0
 21 24  1  0  0  0  0
 22 31  1  0  0  0  0
 23 31  1  0  0  0  0
 24 30  1  0  0  0  0
 25 29  1  0  0  0  0
 26 31  1  0  0  0  0
 27 35  1  0  0  0  0
 27 36  1  0  0  0  0
 27 37  1  0  0  0  0
  1 39  1  0  0  0  0
  2 40  1  0  0  0  0
  3 41  1  0  0  0  0
  4 42  1  0  0  0  0
  5 43  1  0  0  0  0
  6 44  1  0  0  0  0
  7 45  1  0  0  0  0
  8 46  1  0  0  0  0
  9 47  1  0  0  0  0
 20 48  1  0  0  0  0
 20 49  1  0  0  0  0
 21 50  1  0  0  0  0
 21 51  1  0  0  0  0
 22 52  1  0  0  0  0
 22 53  1  0  0  0  0
 23 54  1  0  0  0  0
 23 55  1  0  0  0  0
 24 56  1  0  0  0  0
 25 57  1  0  0  0  0
 25 58  1  0  0  0  0
 26 59  1  0  0  0  0
 26 60  1  0  0  0  0
 30 61  1  0  0  0  0
 31 62  1  0  0  0  0
M  CHG  2  31   1  32  -1
M  END
> <SMILES>
Oc1cc(ccc1CN1CCC(CC1)Nc1nc2cc(c(cc2n1Cc1ccc(cc1)C(F)(F)F)F)F)Cl

> <FORMATTED_ID>
H3D-012700

> <MOLFORMULA>
C27H24ClF5N4O

> <Exact Mass>
550.16

> <XLogP>
8.14

> <TPSA_NOPS>
53.3

> <s_m_source_file>
ligprep_h3d.sdf

> <i_m_source_file_index>
2918

> <i_lp_mmshare_version>
55123

> <i_f3d_flags>
0

> <s_epik_input>
W09IXWMxW2NIXWMoQ2wpW2NIXVtjSF1jMVtDSDJdTjJbQ0gyXVtDSDJdW0NIXShbQ0gyXVtDSDJdMilbTkhdYyhuMyluKGMoYzM0KVtjSF1jKEYpYyhGKVtjSF00KVtDSDJdYzVbY0hdW2NIXWMoQyhGKShGKUYpW2NIXVtjSF01

> <s_epik_cmdline>
J2VwaWtfcHl0aG9uJywgJy1waHQnLCAnMC41JywgJy1waCcsICc3LjUnLCAnLXRuJywgJzgnLCAnLW1hJywgJzUwMCcsICctaW1hZScsICc8aW5maWxlLm1hZT4nLCAnLW9tYWUnLCAnPG91dGZpbGUubWFlPic=

> <r_epik_Ionization_Penalty>
0.725495

> <r_epik_Ionization_Penalty_Charging>
0.709157

> <r_epik_Ionization_Penalty_Neutral>
0.0163378

> <r_epik_State_Penalty>
0.423591

> <r_epik_Charging_Adjusted_Penalty>
1.13275

> <i_epik_Tot_Q>
0

> <i_epik_Tot_abs_Q>
2

> <s_lp_Force_Field>
S-OPLS

> <r_lp_Energy>
34.4686

> <b_lp_Chiralities_Consistent>
1

> <s_lp_Variant>
ligprep_h3d.sdf:2918-2

> <ROCS_ShapeQuery>
_7L13

> <ROCS_TanimotoCombo>
0.707 

> <ROCS_ShapeTanimoto>
0.609 

> <ROCS_ColorTanimoto>
0.098 

> <ROCS_RefTversky>
0.775 

> <ROCS_RefColorTversky>
0.196 

> <ROCS_RefTverskyCombo>
0.971 

> <ROCS_FitTversky>
0.740 

> <ROCS_FitColorTversky>
0.163 

> <ROCS_FitTverskyCombo>
0.904 

> <ROCS_ColorScore>
-1.785

> <ROCS_Overlap>
1290.919

> <ROCS_Rank>
428                 

$$$$
ligprep_h3d.sdf:900_1673
  -OEChem-08212117123D

 68 72  0     1  0  0  0  0  0999 V2000
  -16.8875   -6.1795  -26.5305 C   0  0  0  0  0  0  0  0  0  0  0  0
  -22.9786   -4.1575  -28.8939 C   0  0  0  0  0  0  0  0  0  0  0  0
  -20.6998   -4.4936  -25.4350 C   0  0  0  0  0  0  0  0  0  0  0  0
  -16.6864   -4.7897  -26.6295 C   0  0  0  0  0  0  0  0  0  0  0  0
  -20.8674   -4.6209  -27.8434 C   0  0  0  0  0  0  0  0  0  0  0  0
  -21.0751   -4.7386  -30.2589 C   0  0  0  0  0  0  0  0  0  0  0  0
  -22.4156   -4.3897  -30.1513 C   0  0  0  0  0  0  0  0  0  0  0  0
  -20.3009   -4.8545  -29.1080 C   0  0  0  0  0  0  0  0  0  0  0  0
  -22.2277   -4.2664  -27.7266 C   0  0  0  0  0  0  0  0  0  0  0  0
  -20.1110   -4.7305  -26.6687 C   0  0  0  0  0  0  0  0  0  0  0  0
  -22.0370   -4.1523  -25.4211 C   0  0  0  0  0  0  0  0  0  0  0  0
  -18.2527   -6.3299  -26.5334 C   0  0  0  0  0  0  0  0  0  0  0  0
  -19.8857   -3.9250  -32.3806 C   0  0  0  0  0  0  0  0  0  0  0  0
  -20.5222   -6.2324  -32.0871 C   0  0  0  0  0  0  0  0  0  0  0  0
  -19.3633   -4.1897  -33.5825 C   0  0  0  0  0  0  0  0  0  0  0  0
  -20.4934   -4.9810  -31.5942 C   0  0  0  0  0  0  0  0  0  0  0  0
  -19.9430   -6.5444  -33.4308 C   0  0  0  0  0  0  0  0  0  0  0  0
  -22.7138   -3.8910  -24.1624 C   0  0  0  0  0  0  0  0  0  0  0  0
  -25.1710   -5.2246  -22.0813 C   0  0  0  0  0  0  0  0  0  0  0  0
  -26.4207   -3.8906  -23.2082 C   0  0  0  0  0  0  0  0  0  0  0  0
  -24.9066   -3.9553  -22.9180 C   0  0  2  0  0  0  0  0  0  0  0  0
  -26.5301   -5.3744  -22.7974 C   0  0  1  0  0  0  0  0  0  0  0  0
  -23.2925   -4.2515  -31.3552 C   0  0  0  0  0  0  0  0  0  0  0  0
  -18.8602   -5.2348  -29.3037 C   0  0  0  0  0  0  0  0  0  0  0  0
  -19.0845   -7.5468  -26.4535 C   0  0  0  0  0  0  0  0  0  0  0  0
  -20.2908   -6.0454  -38.7744 C   0  0  0  0  0  0  0  0  0  0  0  0
  -18.7858   -5.6540  -35.4350 C   0  0  0  0  0  0  0  0  0  0  0  0
  -19.8839   -5.7801  -36.4751 C   0  0  0  0  0  0  0  0  0  0  0  0
  -17.8322   -4.1060  -26.6910 N   0  0  0  0  0  0  0  0  0  0  0  0
  -22.8018   -4.0359  -26.5307 N   0  0  0  0  0  0  0  0  0  0  0  0
  -18.7664   -5.0702  -26.6305 N   0  0  0  0  0  0  0  0  0  0  0  0
  -19.3799   -5.4642  -34.1171 N   0  0  0  0  0  0  0  0  0  0  0  0
  -24.0820   -4.1835  -24.1022 N   0  0  0  0  0  0  0  0  0  0  0  0
  -19.9936   -7.7027  -33.8421 O   0  0  0  0  0  0  0  0  0  0  0  0
  -22.0924   -3.4087  -23.1979 O   0  0  0  0  0  0  0  0  0  0  0  0
  -26.5845   -6.3332  -23.8722 O   0  0  0  0  0  0  0  0  0  0  0  0
  -19.2997   -5.9293  -37.7629 O   0  0  0  0  0  0  0  0  0  0  0  0
  -16.1448   -6.9613  -26.4665 H   0  0  0  0  0  0  0  0  0  0  0  0
  -24.0310   -3.8847  -28.8247 H   0  0  0  0  0  0  0  0  0  0  0  0
  -20.1360   -4.5717  -24.5098 H   0  0  0  0  0  0  0  0  0  0  0  0
  -15.7526   -4.2468  -26.6596 H   0  0  0  0  0  0  0  0  0  0  0  0
  -19.8622   -2.9176  -31.9771 H   0  0  0  0  0  0  0  0  0  0  0  0
  -20.9626   -7.0637  -31.5426 H   0  0  0  0  0  0  0  0  0  0  0  0
  -18.9053   -3.4115  -34.1831 H   0  0  0  0  0  0  0  0  0  0  0  0
  -24.4746   -6.0571  -22.2674 H   0  0  0  0  0  0  0  0  0  0  0  0
  -25.2278   -5.0632  -20.9965 H   0  0  0  0  0  0  0  0  0  0  0  0
  -26.9855   -3.1880  -22.5809 H   0  0  0  0  0  0  0  0  0  0  0  0
  -26.6845   -3.6995  -24.2600 H   0  0  0  0  0  0  0  0  0  0  0  0
  -24.5335   -3.1114  -22.3334 H   0  0  0  0  0  0  0  0  0  0  0  0
  -27.3604   -5.5584  -22.0896 H   0  0  0  0  0  0  0  0  0  0  0  0
  -23.2606   -3.2225  -31.7293 H   0  0  0  0  0  0  0  0  0  0  0  0
  -22.9710   -4.9269  -32.1565 H   0  0  0  0  0  0  0  0  0  0  0  0
  -24.3316   -4.5071  -31.1173 H   0  0  0  0  0  0  0  0  0  0  0  0
  -18.7579   -6.3227  -29.2816 H   0  0  0  0  0  0  0  0  0  0  0  0
  -18.4877   -4.8603  -30.2613 H   0  0  0  0  0  0  0  0  0  0  0  0
  -18.2353   -4.8012  -28.5177 H   0  0  0  0  0  0  0  0  0  0  0  0
  -19.3187   -7.7999  -25.4065 H   0  0  0  0  0  0  0  0  0  0  0  0
  -20.0404   -7.4307  -26.9922 H   0  0  0  0  0  0  0  0  0  0  0  0
  -18.5841   -8.4203  -26.9057 H   0  0  0  0  0  0  0  0  0  0  0  0
  -19.8075   -6.1582  -39.7480 H   0  0  0  0  0  0  0  0  0  0  0  0
  -20.9228   -5.1537  -38.7706 H   0  0  0  0  0  0  0  0  0  0  0  0
  -20.9050   -6.9258  -38.5709 H   0  0  0  0  0  0  0  0  0  0  0  0
  -18.1632   -6.5538  -35.4041 H   0  0  0  0  0  0  0  0  0  0  0  0
  -18.1533   -4.7879  -35.6520 H   0  0  0  0  0  0  0  0  0  0  0  0
  -20.4965   -4.8733  -36.4851 H   0  0  0  0  0  0  0  0  0  0  0  0
  -20.5276   -6.6436  -36.2783 H   0  0  0  0  0  0  0  0  0  0  0  0
  -24.5544   -4.5161  -24.9365 H   0  0  0  0  0  0  0  0  0  0  0  0
  -27.4904   -6.3036  -24.2073 H   0  0  0  0  0  0  0  0  0  0  0  0
  1  4  1  0  0  0  0
  1 12  2  0  0  0  0
  2  7  1  0  0  0  0
  2  9  2  0  0  0  0
  3 10  2  0  0  0  0
  3 11  1  0  0  0  0
  4 29  2  0  0  0  0
  5  8  2  0  0  0  0
  5  9  1  0  0  0  0
  5 10  1  0  0  0  0
  6  7  2  0  0  0  0
  6  8  1  0  0  0  0
  6 16  1  0  0  0  0
  7 23  1  0  0  0  0
  8 24  1  0  0  0  0
  9 30  1  0  0  0  0
 10 31  1  0  0  0  0
 11 18  1  0  0  0  0
 11 30  2  0  0  0  0
 12 25  1  0  0  0  0
 12 31  1  0  0  0  0
 13 15  2  0  0  0  0
 13 16  1  0  0  0  0
 14 16  2  0  0  0  0
 14 17  1  0  0  0  0
 15 32  1  0  0  0  0
 17 32  1  0  0  0  0
 17 34  2  0  0  0  0
 18 33  1  0  0  0  0
 18 35  2  0  0  0  0
 19 21  1  0  0  0  0
 19 22  1  0  0  0  0
 20 21  1  0  0  0  0
 20 22  1  0  0  0  0
 21 33  1  0  0  0  0
 22 36  1  0  0  0  0
 26 37  1  0  0  0  0
 27 28  1  0  0  0  0
 27 32  1  0  0  0  0
 28 37  1  0  0  0  0
 29 31  1  0  0  0  0
  1 38  1  0  0  0  0
  2 39  1  0  0  0  0
  3 40  1  0  0  0  0
  4 41  1  0  0  0  0
 13 42  1  0  0  0  0
 14 43  1  0  0  0  0
 15 44  1  0  0  0  0
 19 45  1  0  0  0  0
 19 46  1  0  0  0  0
 20 47  1  0  0  0  0
 20 48  1  0  0  0  0
 21 49  1  0  0  0  0
 22 50  1  0  0  0  0
 23 51  1  0  0  0  0
 23 52  1  0  0  0  0
 23 53  1  0  0  0  0
 24 54  1  0  0  0  0
 24 55  1  0  0  0  0
 24 56  1  0  0  0  0
 25 57  1  0  0  0  0
 25 58  1  0  0  0  0
 25 59  1  0  0  0  0
 26 60  1  0  0  0  0
 26 61  1  0  0  0  0
 26 62  1  0  0  0  0
 27 63  1  0  0  0  0
 27 64  1  0  0  0  0
 28 65  1  0  0  0  0
 28 66  1  0  0  0  0
 33 67  1  0  0  0  0
 36 68  1  0  0  0  0
M  END
> <SMILES>
COCCN1C=CC(=CC1=O)c1c(cc2nc(cc(c2c1C)-n1nccc1C)C(=O)NC1CC(O)C1)C

> <FORMATTED_ID>
H3D-005811

> <MOLFORMULA>
C28H31N5O4

> <Exact Mass>
501.24

> <XLogP>
2.61

> <TPSA_NOPS>
109.6

> <s_m_source_file>
ligprep_h3d.sdf

> <i_m_source_file_index>
900

> <i_lp_mmshare_version>
55123

> <i_f3d_flags>
0

> <s_epik_input>
W0NIM11PW0NIMl1bQ0gyXW4xW2NIXVtjSF1jKFtjSF1jMT1PKS1jKGMoW2NIXTIpW0NIM10pYyhbQ0gzXSljKGMyMyljKC1uNG5bY0hdW2NIXWM0W0NIM10pW2NIXWMobjMpQyg9TylbTkhdW0NAQEhdNVtDSDJdW0NASF0oW09IXSlbQ0gyXTU=

> <s_epik_cmdline>
J2VwaWtfcHl0aG9uJywgJy1waHQnLCAnMC41JywgJy1waCcsICc3LjUnLCAnLXRuJywgJzgnLCAnLW1hJywgJzUwMCcsICctaW1hZScsICc8aW5maWxlLm1hZT4nLCAnLW9tYWUnLCAnPG91dGZpbGUubWFlPic=

> <r_lp_tautomer_probability>
1

> <r_epik_Ionization_Penalty>
1.53389e-05

> <r_epik_Ionization_Penalty_Charging>
2.32377e-07

> <r_epik_Ionization_Penalty_Neutral>
1.51065e-05

> <r_epik_State_Penalty>
-0

> <r_epik_Charging_Adjusted_Penalty>
2.32377e-07

> <i_epik_Tot_Q>
0

> <i_epik_Tot_abs_Q>
0

> <s_lp_Force_Field>
S-OPLS

> <r_lp_Energy>
71.6169

> <b_lp_Chiralities_Consistent>
1

> <s_lp_Variant>
ligprep_h3d.sdf:900-1

> <ROCS_ShapeQuery>
_7L13

> <ROCS_TanimotoCombo>
0.722 

> <ROCS_ShapeTanimoto>
0.618 

> <ROCS_ColorTanimoto>
0.104 

> <ROCS_RefTversky>
0.775 

> <ROCS_RefColorTversky>
0.225 

> <ROCS_RefTverskyCombo>
1.001 

> <ROCS_FitTversky>
0.753 

> <ROCS_FitColorTversky>
0.162 

> <ROCS_FitTverskyCombo>
0.915 

> <ROCS_ColorScore>
-2.074

> <ROCS_Overlap>
1289.447

> <ROCS_Rank>
429                 

$$$$
ligprep_h3d.sdf:5652_673
  -OEChem-08212117123D

 58 61  0     0  0  0  0  0  0999 V2000
  -25.5827   -4.6278  -22.9086 C   0  0  0  0  0  0  0  0  0  0  0  0
  -25.9746   -4.9162  -24.2158 C   0  0  0  0  0  0  0  0  0  0  0  0
  -24.2602   -4.2760  -22.6384 C   0  0  0  0  0  0  0  0  0  0  0  0
  -20.9099   -7.9185  -33.5807 C   0  0  0  0  0  0  0  0  0  0  0  0
  -25.0440   -4.8529  -25.2529 C   0  0  0  0  0  0  0  0  0  0  0  0
  -23.3296   -4.2128  -23.6755 C   0  0  0  0  0  0  0  0  0  0  0  0
  -21.2142   -7.0392  -32.5415 C   0  0  0  0  0  0  0  0  0  0  0  0
  -20.2263   -7.4583  -34.7061 C   0  0  0  0  0  0  0  0  0  0  0  0
  -20.1513   -5.2394  -33.7533 C   0  0  0  0  0  0  0  0  0  0  0  0
  -23.1068   -4.1103  -27.3458 C   0  0  0  0  0  0  0  0  0  0  0  0
  -23.7214   -4.5012  -24.9828 C   0  0  0  0  0  0  0  0  0  0  0  0
  -22.7652   -4.4364  -26.0479 C   0  0  0  0  0  0  0  0  0  0  0  0
  -21.3784   -4.6615  -26.0559 C   0  0  0  0  0  0  0  0  0  0  0  0
  -20.8349   -5.6997  -32.6278 C   0  0  0  0  0  0  0  0  0  0  0  0
  -19.8470   -6.1188  -34.7924 C   0  0  0  0  0  0  0  0  0  0  0  0
  -20.8989   -4.4756  -27.3288 C   0  0  0  0  0  0  0  0  0  0  0  0
  -19.3221   -5.1576  -25.2945 C   0  0  0  0  0  0  0  0  0  0  0  0
  -19.5170   -4.6284  -27.6862 C   0  0  0  0  0  0  0  0  0  0  0  0
  -21.8129   -5.0959  -30.3871 C   0  0  0  0  0  0  0  0  0  0  0  0
  -14.4853   -5.3811  -25.6118 C   0  0  0  0  0  0  0  0  0  0  0  0
  -18.9014   -6.6221  -36.9157 C   0  0  0  0  0  0  0  0  0  0  0  0
  -21.9318   -3.8476  -29.5325 C   0  0  0  0  0  0  0  0  0  0  0  0
  -14.9968   -4.1951  -26.4146 C   0  0  0  0  0  0  0  0  0  0  0  0
  -16.5025   -3.9989  -26.2238 C   0  0  0  0  0  0  0  0  0  0  0  0
  -17.3161   -5.1892  -26.7210 C   0  0  0  0  0  0  0  0  0  0  0  0
  -20.5747   -5.0199  -24.9676 N   0  0  0  0  0  0  0  0  0  0  0  0
  -21.9661   -4.1369  -28.1163 N   0  0  0  0  0  0  0  0  0  0  0  0
  -18.7480   -4.9880  -26.5619 N   0  0  0  0  0  0  0  0  0  0  0  0
  -21.1436   -4.8080  -31.5732 N   0  0  0  0  0  0  0  0  0  0  0  0
  -19.0750   -4.4656  -28.8196 O   0  0  0  0  0  0  0  0  0  0  0  0
  -22.2616   -6.1801  -30.0296 O   0  0  0  0  0  0  0  0  0  0  0  0
  -19.1801   -5.6696  -35.8907 O   0  0  0  0  0  0  0  0  0  0  0  0
  -26.3074   -4.6759  -22.1011 H   0  0  0  0  0  0  0  0  0  0  0  0
  -27.0045   -5.1888  -24.4265 H   0  0  0  0  0  0  0  0  0  0  0  0
  -23.9556   -4.0503  -21.6208 H   0  0  0  0  0  0  0  0  0  0  0  0
  -21.2045   -8.9616  -33.5127 H   0  0  0  0  0  0  0  0  0  0  0  0
  -25.3650   -5.0807  -26.2667 H   0  0  0  0  0  0  0  0  0  0  0  0
  -22.3024   -3.9370  -23.4484 H   0  0  0  0  0  0  0  0  0  0  0  0
  -21.7477   -7.4088  -31.6695 H   0  0  0  0  0  0  0  0  0  0  0  0
  -19.9918   -8.1486  -35.5116 H   0  0  0  0  0  0  0  0  0  0  0  0
  -19.8530   -4.1959  -33.8250 H   0  0  0  0  0  0  0  0  0  0  0  0
  -24.0618   -3.8612  -27.7911 H   0  0  0  0  0  0  0  0  0  0  0  0
  -18.5894   -5.4389  -24.5203 H   0  0  0  0  0  0  0  0  0  0  0  0
  -15.0009   -6.3023  -25.9014 H   0  0  0  0  0  0  0  0  0  0  0  0
  -13.4139   -5.5223  -25.7854 H   0  0  0  0  0  0  0  0  0  0  0  0
  -14.6376   -5.2242  -24.5392 H   0  0  0  0  0  0  0  0  0  0  0  0
  -18.3662   -6.1328  -37.7331 H   0  0  0  0  0  0  0  0  0  0  0  0
  -19.8385   -7.0481  -37.2830 H   0  0  0  0  0  0  0  0  0  0  0  0
  -18.2791   -7.4187  -36.5010 H   0  0  0  0  0  0  0  0  0  0  0  0
  -21.0794   -3.1853  -29.7222 H   0  0  0  0  0  0  0  0  0  0  0  0
  -22.8494   -3.3064  -29.7901 H   0  0  0  0  0  0  0  0  0  0  0  0
  -14.4613   -3.2915  -26.1008 H   0  0  0  0  0  0  0  0  0  0  0  0
  -14.7668   -4.3580  -27.4735 H   0  0  0  0  0  0  0  0  0  0  0  0
  -16.7182   -3.8190  -25.1633 H   0  0  0  0  0  0  0  0  0  0  0  0
  -16.8205   -3.1051  -26.7742 H   0  0  0  0  0  0  0  0  0  0  0  0
  -17.0448   -6.1063  -26.1886 H   0  0  0  0  0  0  0  0  0  0  0  0
  -17.1325   -5.3480  -27.7884 H   0  0  0  0  0  0  0  0  0  0  0  0
  -20.8337   -3.8481  -31.7105 H   0  0  0  0  0  0  0  0  0  0  0  0
  1  2  2  0  0  0  0
  1  3  1  0  0  0  0
  2  5  1  0  0  0  0
  3  6  2  0  0  0  0
  4  7  1  0  0  0  0
  4  8  2  0  0  0  0
  5 11  2  0  0  0  0
  6 11  1  0  0  0  0
  7 14  2  0  0  0  0
  8 15  1  0  0  0  0
  9 14  1  0  0  0  0
  9 15  2  0  0  0  0
 10 12  2  0  0  0  0
 10 27  1  0  0  0  0
 11 12  1  0  0  0  0
 12 13  1  0  0  0  0
 13 16  2  0  0  0  0
 13 26  1  0  0  0  0
 14 29  1  0  0  0  0
 15 32  1  0  0  0  0
 16 18  1  0  0  0  0
 16 27  1  0  0  0  0
 17 26  2  0  0  0  0
 17 28  1  0  0  0  0
 18 28  1  0  0  0  0
 18 30  2  0  0  0  0
 19 22  1  0  0  0  0
 19 29  1  0  0  0  0
 19 31  2  0  0  0  0
 20 23  1  0  0  0  0
 21 32  1  0  0  0  0
 22 27  1  0  0  0  0
 23 24  1  0  0  0  0
 24 25  1  0  0  0  0
 25 28  1  0  0  0  0
  1 33  1  0  0  0  0
  2 34  1  0  0  0  0
  3 35  1  0  0  0  0
  4 36  1  0  0  0  0
  5 37  1  0  0  0  0
  6 38  1  0  0  0  0
  7 39  1  0  0  0  0
  8 40  1  0  0  0  0
  9 41  1  0  0  0  0
 10 42  1  0  0  0  0
 17 43  1  0  0  0  0
 20 44  1  0  0  0  0
 20 45  1  0  0  0  0
 20 46  1  0  0  0  0
 21 47  1  0  0  0  0
 21 48  1  0  0  0  0
 21 49  1  0  0  0  0
 22 50  1  0  0  0  0
 22 51  1  0  0  0  0
 23 52  1  0  0  0  0
 23 53  1  0  0  0  0
 24 54  1  0  0  0  0
 24 55  1  0  0  0  0
 25 56  1  0  0  0  0
 25 57  1  0  0  0  0
 29 58  1  0  0  0  0
M  END
> <SMILES>
CCCCN1C=Nc2c(cn(c2C1=O)CC(=O)Nc1cccc(c1)OC)-c1ccccc1

> <FORMATTED_ID>
H3D-014242

> <MOLFORMULA>
C25H26N4O3

> <Exact Mass>
430.2

> <XLogP>
4.82

> <TPSA_NOPS>
75.9

> <s_m_source_file>
ligprep_h3d.sdf

> <i_m_source_file_index>
5652

> <i_lp_mmshare_version>
55123

> <i_f3d_flags>
0

> <s_epik_input>
W2NIXTFbY0hdW2NIXVtjSF1bY0hdYzEtYzJbY0hdbihjKGMyMyljKD1PKW4oW2NIXW4zKVtDSDJdW0NIMl1bQ0gyXVtDSDNdKVtDSDJdQyg9TylbTkhdYzRbY0hdW2NIXVtjSF1jKFtjSF00KU9bQ0gzXQ==

> <s_epik_cmdline>
J2VwaWtfcHl0aG9uJywgJy1waHQnLCAnMC41JywgJy1waCcsICc3LjUnLCAnLXRuJywgJzgnLCAnLW1hJywgJzUwMCcsICctaW1hZScsICc8aW5maWxlLm1hZT4nLCAnLW9tYWUnLCAnPG91dGZpbGUubWFlPic=

> <r_lp_tautomer_probability>
1

> <r_epik_Ionization_Penalty>
1.07015e-06

> <r_epik_Ionization_Penalty_Charging>
2.2411e-10

> <r_epik_Ionization_Penalty_Neutral>
1.06992e-06

> <r_epik_State_Penalty>
-0

> <r_epik_Charging_Adjusted_Penalty>
2.2411e-10

> <i_epik_Tot_Q>
0

> <i_epik_Tot_abs_Q>
0

> <s_lp_Force_Field>
S-OPLS

> <r_lp_Energy>
54.8895

> <b_lp_Chiralities_Consistent>
1

> <s_lp_Variant>
ligprep_h3d.sdf:5652-1

> <ROCS_ShapeQuery>
_7L13

> <ROCS_TanimotoCombo>
0.861 

> <ROCS_ShapeTanimoto>
0.692 

> <ROCS_ColorTanimoto>
0.169 

> <ROCS_RefTversky>
0.775 

> <ROCS_RefColorTversky>
0.304 

> <ROCS_RefTverskyCombo>
1.079 

> <ROCS_FitTversky>
0.866 

> <ROCS_FitColorTversky>
0.276 

> <ROCS_FitTverskyCombo>
1.142 

> <ROCS_ColorScore>
-2.749

> <ROCS_Overlap>
1279.898

> <ROCS_Rank>
430                 

$$$$
ligprep_h3d.sdf:4743_816
  -OEChem-08212117123D

 62 65  0     0  0  0  0  0  0999 V2000
  -25.5636   -4.5731  -23.3990 C   0  0  0  0  0  0  0  0  0  0  0  0
  -24.3866   -4.0516  -22.8622 C   0  0  0  0  0  0  0  0  0  0  0  0
  -25.5548   -5.1521  -24.6681 C   0  0  0  0  0  0  0  0  0  0  0  0
  -23.2007   -4.1090  -23.5944 C   0  0  0  0  0  0  0  0  0  0  0  0
  -24.3690   -5.2095  -25.4003 C   0  0  0  0  0  0  0  0  0  0  0  0
  -20.6767   -4.6765  -29.7712 C   0  0  0  0  0  0  0  0  0  0  0  0
  -22.7424   -3.1442  -28.5876 C   0  0  0  0  0  0  0  0  0  0  0  0
  -21.6519   -4.0885  -30.5590 C   0  0  0  0  0  0  0  0  0  0  0  0
  -23.1919   -4.6880  -24.8635 C   0  0  0  0  0  0  0  0  0  0  0  0
  -22.6603   -3.3376  -29.9537 C   0  0  0  0  0  0  0  0  0  0  0  0
  -20.7348   -4.4968  -28.3840 C   0  0  0  0  0  0  0  0  0  0  0  0
  -21.7596   -3.7367  -27.7969 C   0  0  0  0  0  0  0  0  0  0  0  0
  -23.1463   -3.2300  -32.1978 C   0  0  0  0  0  0  0  0  0  0  0  0
  -19.3743   -6.0239  -34.8820 C   0  0  0  0  0  0  0  0  0  0  0  0
  -20.7236   -3.3983  -32.8334 C   0  0  0  0  0  0  0  0  0  0  0  0
  -22.1629   -5.5002  -32.6224 C   0  0  0  0  0  0  0  0  0  0  0  0
  -19.5214   -4.2992  -33.1061 C   0  0  0  0  0  0  0  0  0  0  0  0
  -20.9147   -6.3350  -32.9030 C   0  0  0  0  0  0  0  0  0  0  0  0
  -21.8595   -4.0972  -32.0608 C   0  0  0  0  0  0  0  0  0  0  0  0
  -17.8402   -7.9471  -36.3451 C   0  0  0  0  0  0  0  0  0  0  0  0
  -20.0296   -9.1093  -36.7518 C   0  0  0  0  0  0  0  0  0  0  0  0
  -19.6647   -6.7855  -37.6322 C   0  0  0  0  0  0  0  0  0  0  0  0
  -18.6076   -4.2999  -27.3382 C   0  0  0  0  0  0  0  0  0  0  0  0
  -21.9167   -4.7498  -25.6517 C   0  0  0  0  0  0  0  0  0  0  0  0
  -19.3491   -7.7650  -36.5027 C   0  0  0  0  0  0  0  0  0  0  0  0
  -23.5288   -2.8396  -30.9144 N   0  0  0  0  0  0  0  0  0  0  0  0
  -19.9358   -5.5751  -33.6824 N   0  0  0  0  0  0  0  0  0  0  0  0
  -23.7126   -2.9474  -33.2440 O   0  0  0  0  0  0  0  0  0  0  0  0
  -18.5233   -5.4085  -35.5218 O   0  0  0  0  0  0  0  0  0  0  0  0
  -19.7759   -5.0727  -27.6020 O   0  0  0  0  0  0  0  0  0  0  0  0
  -21.8021   -3.5707  -26.4446 O   0  0  0  0  0  0  0  0  0  0  0  0
  -19.8745   -7.2355  -35.2799 O   0  0  0  0  0  0  0  0  0  0  0  0
  -26.4866   -4.5296  -22.8282 H   0  0  0  0  0  0  0  0  0  0  0  0
  -24.3930   -3.6018  -21.8737 H   0  0  0  0  0  0  0  0  0  0  0  0
  -26.4708   -5.5592  -25.0859 H   0  0  0  0  0  0  0  0  0  0  0  0
  -22.2884   -3.7000  -23.1682 H   0  0  0  0  0  0  0  0  0  0  0  0
  -24.3716   -5.6623  -26.3882 H   0  0  0  0  0  0  0  0  0  0  0  0
  -19.8796   -5.2661  -30.2176 H   0  0  0  0  0  0  0  0  0  0  0  0
  -23.5398   -2.5547  -28.1473 H   0  0  0  0  0  0  0  0  0  0  0  0
  -20.3688   -2.5241  -32.2657 H   0  0  0  0  0  0  0  0  0  0  0  0
  -21.0960   -3.0041  -33.7912 H   0  0  0  0  0  0  0  0  0  0  0  0
  -22.7541   -5.4240  -33.5478 H   0  0  0  0  0  0  0  0  0  0  0  0
  -22.7892   -6.0596  -31.9102 H   0  0  0  0  0  0  0  0  0  0  0  0
  -18.8303   -3.8283  -33.8150 H   0  0  0  0  0  0  0  0  0  0  0  0
  -18.9631   -4.4577  -32.1763 H   0  0  0  0  0  0  0  0  0  0  0  0
  -20.4902   -6.6823  -31.9558 H   0  0  0  0  0  0  0  0  0  0  0  0
  -21.1661   -7.2311  -33.4828 H   0  0  0  0  0  0  0  0  0  0  0  0
  -17.3481   -6.9844  -36.1662 H   0  0  0  0  0  0  0  0  0  0  0  0
  -17.5996   -8.6201  -35.5158 H   0  0  0  0  0  0  0  0  0  0  0  0
  -17.3978   -8.3548  -37.2613 H   0  0  0  0  0  0  0  0  0  0  0  0
  -21.1124   -8.9834  -36.8654 H   0  0  0  0  0  0  0  0  0  0  0  0
  -19.8850   -9.7837  -35.9000 H   0  0  0  0  0  0  0  0  0  0  0  0
  -19.6411   -9.5982  -37.6510 H   0  0  0  0  0  0  0  0  0  0  0  0
  -20.7470   -6.6547  -37.7454 H   0  0  0  0  0  0  0  0  0  0  0  0
  -19.2150   -5.8037  -37.4521 H   0  0  0  0  0  0  0  0  0  0  0  0
  -19.2972   -7.1661  -38.5921 H   0  0  0  0  0  0  0  0  0  0  0  0
  -17.9256   -4.8733  -26.7055 H   0  0  0  0  0  0  0  0  0  0  0  0
  -18.8900   -3.3698  -26.8386 H   0  0  0  0  0  0  0  0  0  0  0  0
  -18.1140   -4.0674  -28.2848 H   0  0  0  0  0  0  0  0  0  0  0  0
  -21.0485   -4.8194  -24.9875 H   0  0  0  0  0  0  0  0  0  0  0  0
  -21.9089   -5.6264  -26.3084 H   0  0  0  0  0  0  0  0  0  0  0  0
  -24.3377   -2.2653  -30.7085 H   0  0  0  0  0  0  0  0  0  0  0  0
  1  2  2  0  0  0  0
  1  3  1  0  0  0  0
  2  4  1  0  0  0  0
  3  5  2  0  0  0  0
  4  9  2  0  0  0  0
  5  9  1  0  0  0  0
  6  8  1  0  0  0  0
  6 11  2  0  0  0  0
  7 10  1  0  0  0  0
  7 12  2  0  0  0  0
  8 10  2  0  0  0  0
  8 19  1  0  0  0  0
  9 24  1  0  0  0  0
 10 26  1  0  0  0  0
 11 12  1  0  0  0  0
 11 30  1  0  0  0  0
 12 31  1  0  0  0  0
 13 19  1  0  0  0  0
 13 26  1  0  0  0  0
 13 28  2  0  0  0  0
 14 27  1  0  0  0  0
 14 29  2  0  0  0  0
 14 32  1  0  0  0  0
 15 17  1  0  0  0  0
 15 19  1  0  0  0  0
 16 18  1  0  0  0  0
 16 19  1  0  0  0  0
 17 27  1  0  0  0  0
 18 27  1  0  0  0  0
 20 25  1  0  0  0  0
 21 25  1  0  0  0  0
 22 25  1  0  0  0  0
 23 30  1  0  0  0  0
 24 31  1  0  0  0  0
 25 32  1  0  0  0  0
  1 33  1  0  0  0  0
  2 34  1  0  0  0  0
  3 35  1  0  0  0  0
  4 36  1  0  0  0  0
  5 37  1  0  0  0  0
  6 38  1  0  0  0  0
  7 39  1  0  0  0  0
 15 40  1  0  0  0  0
 15 41  1  0  0  0  0
 16 42  1  0  0  0  0
 16 43  1  0  0  0  0
 17 44  1  0  0  0  0
 17 45  1  0  0  0  0
 18 46  1  0  0  0  0
 18 47  1  0  0  0  0
 20 48  1  0  0  0  0
 20 49  1  0  0  0  0
 20 50  1  0  0  0  0
 21 51  1  0  0  0  0
 21 52  1  0  0  0  0
 21 53  1  0  0  0  0
 22 54  1  0  0  0  0
 22 55  1  0  0  0  0
 22 56  1  0  0  0  0
 23 57  1  0  0  0  0
 23 58  1  0  0  0  0
 23 59  1  0  0  0  0
 24 60  1  0  0  0  0
 24 61  1  0  0  0  0
 26 62  1  0  0  0  0
M  END
> <SMILES>
COc1cc2c(cc1OCc1ccccc1)NC(=O)C12CCN(CC1)C(=O)OC(C)(C)C

> <FORMATTED_ID>
H3D-007228

> <MOLFORMULA>
C25H30N2O5

> <Exact Mass>
438.22

> <XLogP>
5.06

> <TPSA_NOPS>
77.1

> <s_m_source_file>
ligprep_h3d.sdf

> <i_m_source_file_index>
4743

> <i_lp_mmshare_version>
55123

> <i_f3d_flags>
0

> <s_epik_input>
W2NIXTFbY0hdW2NIXVtjSF1bY0hdYzFbQ0gyXU9jKGMoW2NIXTIpT1tDSDNdKVtjSF1jKFtOSF1DMz1PKWMyQzM0W0NIMl1bQ0gyXU4oW0NIMl1bQ0gyXTQpQyg9TylPQyhbQ0gzXSkoW0NIM10pW0NIM10=

> <s_epik_cmdline>
J2VwaWtfcHl0aG9uJywgJy1waHQnLCAnMC41JywgJy1waCcsICc3LjUnLCAnLXRuJywgJzgnLCAnLW1hJywgJzUwMCcsICctaW1hZScsICc8aW5maWxlLm1hZT4nLCAnLW9tYWUnLCAnPG91dGZpbGUubWFlPic=

> <r_lp_tautomer_probability>
1

> <r_epik_Ionization_Penalty>
3.11561e-06

> <r_epik_Ionization_Penalty_Charging>
0

> <r_epik_Ionization_Penalty_Neutral>
3.11561e-06

> <r_epik_State_Penalty>
-0

> <r_epik_Charging_Adjusted_Penalty>
0

> <i_epik_Tot_Q>
0

> <i_epik_Tot_abs_Q>
0

> <s_epik_Chemistry_Notes>
This compound has an ester and may undergo hydrolysis at high or low pH.

> <s_lp_Force_Field>
S-OPLS

> <r_lp_Energy>
46.629

> <b_lp_Chiralities_Consistent>
1

> <s_lp_Variant>
ligprep_h3d.sdf:4743-1

> <ROCS_ShapeQuery>
_7L13

> <ROCS_TanimotoCombo>
0.882 

> <ROCS_ShapeTanimoto>
0.695 

> <ROCS_ColorTanimoto>
0.188 

> <ROCS_RefTversky>
0.775 

> <ROCS_RefColorTversky>
0.332 

> <ROCS_RefTverskyCombo>
1.107 

> <ROCS_FitTversky>
0.870 

> <ROCS_FitColorTversky>
0.302 

> <ROCS_FitTverskyCombo>
1.171 

> <ROCS_ColorScore>
-3.006

> <ROCS_Overlap>
1279.376

> <ROCS_Rank>
431                 

$$$$
ligprep_h3d.sdf:4519_415
  -OEChem-08212117123D

 75 80  0     0  0  0  0  0  0999 V2000
  -20.0606   -5.5778  -26.6372 C   0  0  0  0  0  0  0  0  0  0  0  0
  -20.4997   -5.2073  -27.9082 C   0  0  0  0  0  0  0  0  0  0  0  0
  -20.7070   -5.0835  -25.5043 C   0  0  0  0  0  0  0  0  0  0  0  0
  -24.1843   -2.2148  -31.6397 C   0  0  0  0  0  0  0  0  0  0  0  0
  -22.2316   -3.8478  -26.9135 C   0  0  0  0  0  0  0  0  0  0  0  0
  -24.0089   -2.3313  -33.0112 C   0  0  0  0  0  0  0  0  0  0  0  0
  -21.5852   -4.3422  -28.0464 C   0  0  0  0  0  0  0  0  0  0  0  0
  -21.7925   -4.2184  -25.6425 C   0  0  0  0  0  0  0  0  0  0  0  0
  -22.2780   -3.7343  -31.4700 C   0  0  0  0  0  0  0  0  0  0  0  0
  -23.2739   -2.9517  -30.8948 C   0  0  0  0  0  0  0  0  0  0  0  0
  -22.1855   -3.7843  -32.8613 C   0  0  0  0  0  0  0  0  0  0  0  0
  -22.0392   -3.9596  -29.3613 C   0  0  0  0  0  0  0  0  0  0  0  0
  -22.4725   -3.6982  -24.4487 C   0  0  0  0  0  0  0  0  0  0  0  0
  -19.2886   -4.6540  -35.0356 C   0  0  0  0  0  0  0  0  0  0  0  0
  -19.7516   -6.5573  -33.4786 C   0  0  0  0  0  0  0  0  0  0  0  0
  -20.6927   -4.1069  -34.7802 C   0  0  0  0  0  0  0  0  0  0  0  0
  -21.1546   -6.0054  -33.2234 C   0  0  0  0  0  0  0  0  0  0  0  0
  -17.5013   -9.8053  -36.7875 C   0  0  0  0  0  0  0  0  0  0  0  0
  -19.7416  -10.7002  -36.6208 C   0  0  0  0  0  0  0  0  0  0  0  0
  -24.6547   -4.7756  -25.2078 C   0  0  0  0  0  0  0  0  0  0  0  0
  -24.5617   -3.4160  -23.1567 C   0  0  0  0  0  0  0  0  0  0  0  0
  -18.0357   -8.3771  -36.8111 C   0  0  0  0  0  0  0  0  0  0  0  0
  -20.3410   -9.2980  -36.6395 C   0  0  0  0  0  0  0  0  0  0  0  0
  -25.4888   -5.7875  -24.4311 C   0  0  0  0  0  0  0  0  0  0  0  0
  -25.3889   -4.4901  -22.4656 C   0  0  0  0  0  0  0  0  0  0  0  0
  -19.1967   -6.1736  -34.8545 C   0  0  0  0  0  0  0  0  0  0  0  0
  -17.9321  -12.1029  -37.3714 C   0  0  0  0  0  0  0  0  0  0  0  0
  -19.8949   -6.9308  -35.9860 C   0  0  0  0  0  0  0  0  0  0  0  0
  -23.0570   -3.0781  -33.6236 N   0  0  0  0  0  0  0  0  0  0  0  0
  -21.5207   -4.3530  -30.5033 N   0  0  0  0  0  0  0  0  0  0  0  0
  -23.0982   -3.1142  -29.5448 N   0  0  0  0  0  0  0  0  0  0  0  0
  -21.1965   -4.5615  -33.4770 N   0  0  0  0  0  0  0  0  0  0  0  0
  -23.8290   -3.9848  -24.2869 N   0  0  0  0  0  0  0  0  0  0  0  0
  -18.4740  -10.7445  -37.3615 N   0  0  0  0  0  0  0  0  0  0  0  0
  -19.3432   -8.3260  -36.0616 N   0  3  0  0  0  0  0  0  0  0  0  0
  -21.7838   -3.0350  -23.6747 O   0  0  0  0  0  0  0  0  0  0  0  0
  -26.2477   -5.1339  -23.4108 O   0  0  0  0  0  0  0  0  0  0  0  0
  -19.2146   -6.2505  -26.5294 H   0  0  0  0  0  0  0  0  0  0  0  0
  -19.9859   -5.6013  -28.7820 H   0  0  0  0  0  0  0  0  0  0  0  0
  -20.3567   -5.3796  -24.5188 H   0  0  0  0  0  0  0  0  0  0  0  0
  -24.9593   -1.6063  -31.1941 H   0  0  0  0  0  0  0  0  0  0  0  0
  -23.0782   -3.1717  -27.0162 H   0  0  0  0  0  0  0  0  0  0  0  0
  -24.6670   -1.7962  -33.6901 H   0  0  0  0  0  0  0  0  0  0  0  0
  -18.9728   -4.3769  -36.0561 H   0  0  0  0  0  0  0  0  0  0  0  0
  -18.5801   -4.1549  -34.3543 H   0  0  0  0  0  0  0  0  0  0  0  0
  -19.0741   -6.1912  -32.6882 H   0  0  0  0  0  0  0  0  0  0  0  0
  -19.7707   -7.6568  -33.3720 H   0  0  0  0  0  0  0  0  0  0  0  0
  -20.6762   -3.0096  -34.8098 H   0  0  0  0  0  0  0  0  0  0  0  0
  -21.3558   -4.4499  -35.5843 H   0  0  0  0  0  0  0  0  0  0  0  0
  -21.8615   -6.5286  -33.8804 H   0  0  0  0  0  0  0  0  0  0  0  0
  -21.4527   -6.2115  -32.1867 H   0  0  0  0  0  0  0  0  0  0  0  0
  -16.5754   -9.8292  -37.3749 H   0  0  0  0  0  0  0  0  0  0  0  0
  -17.2390  -10.0872  -35.7590 H   0  0  0  0  0  0  0  0  0  0  0  0
  -19.6029  -11.0326  -35.5833 H   0  0  0  0  0  0  0  0  0  0  0  0
  -20.4630  -11.3834  -37.0853 H   0  0  0  0  0  0  0  0  0  0  0  0
  -24.0511   -5.2857  -25.9622 H   0  0  0  0  0  0  0  0  0  0  0  0
  -25.3108   -4.0632  -25.7219 H   0  0  0  0  0  0  0  0  0  0  0  0
  -25.2167   -2.6404  -23.5707 H   0  0  0  0  0  0  0  0  0  0  0  0
  -23.8783   -2.9401  -22.4469 H   0  0  0  0  0  0  0  0  0  0  0  0
  -17.3423   -7.6958  -36.3071 H   0  0  0  0  0  0  0  0  0  0  0  0
  -18.2199   -8.0241  -37.8324 H   0  0  0  0  0  0  0  0  0  0  0  0
  -20.5814   -8.9674  -37.6566 H   0  0  0  0  0  0  0  0  0  0  0  0
  -21.2405   -9.2531  -36.0167 H   0  0  0  0  0  0  0  0  0  0  0  0
  -26.1964   -6.2808  -25.1049 H   0  0  0  0  0  0  0  0  0  0  0  0
  -24.8601   -6.5655  -23.9821 H   0  0  0  0  0  0  0  0  0  0  0  0
  -24.7530   -5.2364  -21.9746 H   0  0  0  0  0  0  0  0  0  0  0  0
  -26.0224   -4.0354  -21.6975 H   0  0  0  0  0  0  0  0  0  0  0  0
  -18.1222   -6.4583  -34.8832 H   0  0  0  0  0  0  0  0  0  0  0  0
  -18.6735  -12.7909  -37.8039 H   0  0  0  0  0  0  0  0  0  0  0  0
  -17.0134  -12.1267  -37.9759 H   0  0  0  0  0  0  0  0  0  0  0  0
  -17.7014  -12.4130  -36.3415 H   0  0  0  0  0  0  0  0  0  0  0  0
  -19.7161   -6.4615  -36.9573 H   0  0  0  0  0  0  0  0  0  0  0  0
  -20.9704   -7.0197  -35.8096 H   0  0  0  0  0  0  0  0  0  0  0  0
  -23.6547   -2.6836  -28.8178 H   0  0  0  0  0  0  0  0  0  0  0  0
  -19.1531   -8.6192  -35.0934 H   0  0  0  0  0  0  0  0  0  0  0  0
  1  2  1  0  0  0  0
  1  3  2  0  0  0  0
  2  7  2  0  0  0  0
  3  8  1  0  0  0  0
  4  6  2  0  0  0  0
  4 10  1  0  0  0  0
  5  7  1  0  0  0  0
  5  8  2  0  0  0  0
  6 29  1  0  0  0  0
  7 12  1  0  0  0  0
  8 13  1  0  0  0  0
  9 10  2  0  0  0  0
  9 11  1  0  0  0  0
  9 30  1  0  0  0  0
 10 31  1  0  0  0  0
 11 29  2  0  0  0  0
 11 32  1  0  0  0  0
 12 30  2  0  0  0  0
 12 31  1  0  0  0  0
 13 33  1  0  0  0  0
 13 36  2  0  0  0  0
 14 16  1  0  0  0  0
 14 26  1  0  0  0  0
 15 17  1  0  0  0  0
 15 26  1  0  0  0  0
 16 32  1  0  0  0  0
 17 32  1  0  0  0  0
 18 22  1  0  0  0  0
 18 34  1  0  0  0  0
 19 23  1  0  0  0  0
 19 34  1  0  0  0  0
 20 24  1  0  0  0  0
 20 33  1  0  0  0  0
 21 25  1  0  0  0  0
 21 33  1  0  0  0  0
 22 35  1  0  0  0  0
 23 35  1  0  0  0  0
 24 37  1  0  0  0  0
 25 37  1  0  0  0  0
 26 28  1  0  0  0  0
 27 34  1  0  0  0  0
 28 35  1  0  0  0  0
  1 38  1  0  0  0  0
  2 39  1  0  0  0  0
  3 40  1  0  0  0  0
  4 41  1  0  0  0  0
  5 42  1  0  0  0  0
  6 43  1  0  0  0  0
 14 44  1  0  0  0  0
 14 45  1  0  0  0  0
 15 46  1  0  0  0  0
 15 47  1  0  0  0  0
 16 48  1  0  0  0  0
 16 49  1  0  0  0  0
 17 50  1  0  0  0  0
 17 51  1  0  0  0  0
 18 52  1  0  0  0  0
 18 53  1  0  0  0  0
 19 54  1  0  0  0  0
 19 55  1  0  0  0  0
 20 56  1  0  0  0  0
 20 57  1  0  0  0  0
 21 58  1  0  0  0  0
 21 59  1  0  0  0  0
 22 60  1  0  0  0  0
 22 61  1  0  0  0  0
 23 62  1  0  0  0  0
 23 63  1  0  0  0  0
 24 64  1  0  0  0  0
 24 65  1  0  0  0  0
 25 66  1  0  0  0  0
 25 67  1  0  0  0  0
 26 68  1  0  0  0  0
 27 69  1  0  0  0  0
 27 70  1  0  0  0  0
 27 71  1  0  0  0  0
 28 72  1  0  0  0  0
 28 73  1  0  0  0  0
 31 74  1  0  0  0  0
 35 75  1  0  0  0  0
M  CHG  1  35   1
M  END
> <SMILES>
CN1CCN(CC1)CC1CCN(CC1)c1nccc2[nH]c(nc12)-c1cccc(c1)C(=O)N1CCOCC1

> <FORMATTED_ID>
H3D-004433

> <MOLFORMULA>
C28H37N7O2

> <Exact Mass>
503.3

> <XLogP>
2.82

> <TPSA_NOPS>
80.8

> <s_m_source_file>
ligprep_h3d.sdf

> <i_m_source_file_index>
4519

> <i_lp_mmshare_version>
55123

> <i_f3d_flags>
0

> <s_epik_input>
W0NIM11OMVtDSDJdW0NIMl1OKFtDSDJdW0NIMl0xKVtDSDJdW0NIXTJbQ0gyXVtDSDJdTihbQ0gyXVtDSDJdMiljKG5bY0hdW2NIXTMpYyhjMzQpbmMoW25IXTQpLWM1W2NIXVtjSF1bY0hdYyhbY0hdNSlDKD1PKU42W0NIMl1bQ0gyXU9bQ0gyXVtDSDJdNg==

> <s_epik_cmdline>
J2VwaWtfcHl0aG9uJywgJy1waHQnLCAnMC41JywgJy1waCcsICc3LjUnLCAnLXRuJywgJzgnLCAnLW1hJywgJzUwMCcsICctaW1hZScsICc8aW5maWxlLm1hZT4nLCAnLW9tYWUnLCAnPG91dGZpbGUubWFlPic=

> <r_lp_tautomer_probability>
0.742559

> <r_epik_Ionization_Penalty>
0.195976

> <r_epik_Ionization_Penalty_Charging>
0.194852

> <r_epik_Ionization_Penalty_Neutral>
0.00112407

> <r_epik_State_Penalty>
0.182899

> <r_epik_Charging_Adjusted_Penalty>
0.377751

> <i_epik_Tot_Q>
1

> <i_epik_Tot_abs_Q>
1

> <s_lp_Force_Field>
S-OPLS

> <r_lp_Energy>
75.8471

> <b_lp_Chiralities_Consistent>
1

> <s_lp_Variant>
ligprep_h3d.sdf:4519-1

> <ROCS_ShapeQuery>
_7L13

> <ROCS_TanimotoCombo>
0.775 

> <ROCS_ShapeTanimoto>
0.622 

> <ROCS_ColorTanimoto>
0.153 

> <ROCS_RefTversky>
0.775 

> <ROCS_RefColorTversky>
0.330 

> <ROCS_RefTverskyCombo>
1.105 

> <ROCS_FitTversky>
0.759 

> <ROCS_FitColorTversky>
0.222 

> <ROCS_FitTverskyCombo>
0.981 

> <ROCS_ColorScore>
-3.056

> <ROCS_Overlap>
1288.209

> <ROCS_Rank>
432                 

$$$$
ligprep_h3d.sdf:815_109
  -OEChem-08212117123D

 62 67  0     1  0  0  0  0  0999 V2000
  -21.0027   -5.1662  -29.4943 C   0  0  0  0  0  0  0  0  0  0  0  0
  -21.7579   -4.3913  -30.3771 C   0  0  0  0  0  0  0  0  0  0  0  0
  -21.1124   -4.9167  -28.1051 C   0  0  0  0  0  0  0  0  0  0  0  0
  -21.9875   -3.9396  -27.5744 C   0  0  0  0  0  0  0  0  0  0  0  0
  -22.5828   -3.4188  -29.8560 C   0  0  0  0  0  0  0  0  0  0  0  0
  -22.7267   -3.1578  -28.4931 C   0  0  0  0  0  0  0  0  0  0  0  0
  -21.9496   -4.2839  -31.7672 C   0  0  0  0  0  0  0  0  0  0  0  0
  -18.9017   -3.8555  -26.2339 C   0  0  0  0  0  0  0  0  0  0  0  0
  -19.2644   -6.0563  -24.9985 C   0  0  0  0  0  0  0  0  0  0  0  0
  -17.0737   -5.2229  -25.8220 C   0  0  0  0  0  0  0  0  0  0  0  0
  -20.2734   -5.7552  -27.1784 C   0  0  0  0  0  0  0  0  0  0  0  0
  -19.9378   -6.8289  -33.5263 C   0  0  0  0  0  0  0  0  0  0  0  0
  -20.8639   -6.4672  -32.3639 C   0  0  0  0  0  0  0  0  0  0  0  0
  -20.9059   -4.6942  -34.0143 C   0  0  0  0  0  0  0  0  0  0  0  0
  -23.0413   -2.7799  -25.6437 C   0  0  0  0  0  0  0  0  0  0  0  0
  -21.2109   -4.4664  -25.2283 C   0  0  2  0  0  0  0  0  0  0  0  0
  -20.5172   -6.0150  -34.6694 C   0  0  1  0  0  0  0  0  0  0  0  0
  -23.4144   -3.0882  -24.1907 C   0  0  1  0  0  0  0  0  0  0  0  0
  -21.0423   -3.5281  -23.9973 C   0  0  2  0  0  0  0  0  0  0  0  0
  -19.8925   -4.9912  -25.8863 C   0  0  2  0  0  0  0  0  0  0  0  0
  -24.4112   -4.2394  -24.0718 C   0  0  0  0  0  0  0  0  0  0  0  0
  -20.0872   -4.0044  -22.9101 C   0  0  0  0  0  0  0  0  0  0  0  0
  -19.0522   -7.0680  -36.3971 C   0  0  0  0  0  0  0  0  0  0  0  0
  -22.8205   -3.3218  -32.0860 N   0  0  0  0  0  0  0  0  0  0  0  0
  -17.6439   -4.2194  -26.4903 N   0  5  0  0  0  0  0  0  0  0  0  0
  -17.8849   -6.0583  -25.0562 N   0  0  0  0  0  0  0  0  0  0  0  0
  -22.0939   -3.7577  -26.1933 N   0  0  3  0  0  0  0  0  0  0  0  0
  -21.2881   -5.0985  -32.6611 N   0  0  0  0  0  0  0  0  0  0  0  0
  -19.5268   -5.8139  -35.7406 N   0  3  0  0  0  0  0  0  0  0  0  0
  -19.2976   -2.6987  -26.3753 O   0  0  0  0  0  0  0  0  0  0  0  0
  -19.9085   -6.8827  -24.3561 O   0  0  0  0  0  0  0  0  0  0  0  0
  -15.8627   -5.4551  -25.8675 O   0  0  0  0  0  0  0  0  0  0  0  0
  -23.2186   -2.7738  -30.8722 O   0  0  0  0  0  0  0  0  0  0  0  0
  -22.3051   -3.3603  -23.3392 O   0  0  0  0  0  0  0  0  0  0  0  0
  -23.4803   -2.1130  -28.1298 F   0  0  0  0  0  0  0  0  0  0  0  0
  -20.3362   -5.9390  -29.8664 H   0  0  0  0  0  0  0  0  0  0  0  0
  -20.8461   -6.6620  -26.9402 H   0  0  0  0  0  0  0  0  0  0  0  0
  -19.3668   -6.0890  -27.7003 H   0  0  0  0  0  0  0  0  0  0  0  0
  -18.9126   -6.5169  -33.2906 H   0  0  0  0  0  0  0  0  0  0  0  0
  -19.9354   -7.9030  -33.7338 H   0  0  0  0  0  0  0  0  0  0  0  0
  -21.7398   -7.1265  -32.3435 H   0  0  0  0  0  0  0  0  0  0  0  0
  -20.3415   -6.5420  -31.4035 H   0  0  0  0  0  0  0  0  0  0  0  0
  -20.0614   -3.9957  -33.9587 H   0  0  0  0  0  0  0  0  0  0  0  0
  -21.7332   -4.2109  -34.5465 H   0  0  0  0  0  0  0  0  0  0  0  0
  -23.9530   -2.8141  -26.2750 H   0  0  0  0  0  0  0  0  0  0  0  0
  -22.7171   -1.7285  -25.6882 H   0  0  0  0  0  0  0  0  0  0  0  0
  -21.7959   -5.3380  -24.8931 H   0  0  0  0  0  0  0  0  0  0  0  0
  -21.3874   -6.5123  -35.1133 H   0  0  0  0  0  0  0  0  0  0  0  0
  -23.9516   -2.1751  -23.7563 H   0  0  0  0  0  0  0  0  0  0  0  0
  -20.6999   -2.5250  -24.3093 H   0  0  0  0  0  0  0  0  0  0  0  0
  -23.9723   -5.1554  -24.4678 H   0  0  0  0  0  0  0  0  0  0  0  0
  -25.3160   -4.0091  -24.6345 H   0  0  0  0  0  0  0  0  0  0  0  0
  -24.6757   -4.3974  -23.0261 H   0  0  0  0  0  0  0  0  0  0  0  0
  -20.3807   -4.9955  -22.5640 H   0  0  0  0  0  0  0  0  0  0  0  0
  -20.1088   -3.3145  -22.0665 H   0  0  0  0  0  0  0  0  0  0  0  0
  -19.0710   -4.0529  -23.3016 H   0  0  0  0  0  0  0  0  0  0  0  0
  -18.6419   -7.7165  -35.6209 H   0  0  0  0  0  0  0  0  0  0  0  0
  -19.9097   -7.5346  -36.8857 H   0  0  0  0  0  0  0  0  0  0  0  0
  -18.2862   -6.7946  -37.1253 H   0  0  0  0  0  0  0  0  0  0  0  0
  -17.4091   -6.7437  -24.4772 H   0  0  0  0  0  0  0  0  0  0  0  0
  -19.9177   -5.1923  -36.4688 H   0  0  0  0  0  0  0  0  0  0  0  0
  -18.7046   -5.3087  -35.3690 H   0  0  0  0  0  0  0  0  0  0  0  0
  1  2  2  0  0  0  0
  1  3  1  0  0  0  0
  2  5  1  0  0  0  0
  2  7  1  0  0  0  0
  3  4  2  0  0  0  0
  3 11  1  0  0  0  0
  4  6  1  0  0  0  0
  4 27  1  0  0  0  0
  5  6  2  0  0  0  0
  5 33  1  0  0  0  0
  6 35  1  0  0  0  0
  7 24  2  0  0  0  0
  7 28  1  0  0  0  0
  8 20  1  0  0  0  0
  8 25  1  0  0  0  0
  8 30  2  0  0  0  0
  9 20  1  0  0  0  0
  9 26  1  0  0  0  0
  9 31  2  0  0  0  0
 10 25  1  0  0  0  0
 10 26  1  0  0  0  0
 10 32  2  0  0  0  0
 11 20  1  0  0  0  0
 12 13  1  0  0  0  0
 12 17  1  0  0  0  0
 13 28  1  0  0  0  0
 14 17  1  0  0  0  0
 14 28  1  0  0  0  0
 15 18  1  0  0  0  0
 15 27  1  0  0  0  0
 16 19  1  0  0  0  0
 16 20  1  0  0  0  0
 16 27  1  0  0  0  0
 17 29  1  0  0  0  0
 18 21  1  0  0  0  0
 18 34  1  0  0  0  0
 19 22  1  0  0  0  0
 19 34  1  0  0  0  0
 23 29  1  0  0  0  0
 24 33  1  0  0  0  0
  1 36  1  0  0  0  0
 11 37  1  0  0  0  0
 11 38  1  0  0  0  0
 12 39  1  0  0  0  0
 12 40  1  0  0  0  0
 13 41  1  0  0  0  0
 13 42  1  0  0  0  0
 14 43  1  0  0  0  0
 14 44  1  0  0  0  0
 15 45  1  0  0  0  0
 15 46  1  0  0  0  0
 16 47  1  0  0  0  0
 17 48  1  0  0  0  0
 18 49  1  0  0  0  0
 19 50  1  0  0  0  0
 21 51  1  0  0  0  0
 21 52  1  0  0  0  0
 21 53  1  0  0  0  0
 22 54  1  0  0  0  0
 22 55  1  0  0  0  0
 22 56  1  0  0  0  0
 23 57  1  0  0  0  0
 23 58  1  0  0  0  0
 23 59  1  0  0  0  0
 26 60  1  0  0  0  0
 29 61  1  0  0  0  0
 29 62  1  0  0  0  0
M  CHG  2  25  -1  29   1
M  END
> <SMILES>
CN[C@H]1CCN(C1)c1noc2c(c3c(cc12)CC1([C@H]2[C@H](C)O[C@H](C)CN23)C(=O)NC(=O)NC1=O)F

> <FORMATTED_ID>
H3D-005494

> <MOLFORMULA>
C23H27FN6O5

> <Exact Mass>
486.2

> <XLogP>
0.24

> <TPSA_NOPS>
129.3

> <s_m_source_file>
ligprep_h3d.sdf

> <i_m_source_file_index>
815

> <i_lp_mmshare_version>
55123

> <i_f3d_flags>
0

> <s_epik_input>
W0NIM11bTkhdW0NASF0xW0NIMl1bQ0gyXU4oW0NIMl0xKWMybm9jKGMzRiljMltjSF1jKFtDSDJdNCljM04oW0NIMl1bQ0BASF0oW0NIM10pT1tDQEhdNVtDSDNdKVtDQEhdNUM0NkMoPU8pW05IXUMoPU8pW05IXUM2PU8=

> <s_epik_cmdline>
J2VwaWtfcHl0aG9uJywgJy1waHQnLCAnMC41JywgJy1waCcsICc3LjUnLCAnLXRuJywgJzgnLCAnLW1hJywgJzUwMCcsICctaW1hZScsICc8aW5maWxlLm1hZT4nLCAnLW9tYWUnLCAnPG91dGZpbGUubWFlPic=

> <r_lp_tautomer_probability>
1

> <r_epik_Ionization_Penalty>
0.47674

> <r_epik_Ionization_Penalty_Charging>
0.476726

> <r_epik_Ionization_Penalty_Neutral>
1.46477e-05

> <r_epik_State_Penalty>
0.475651

> <r_epik_Charging_Adjusted_Penalty>
0.952376

> <i_epik_Tot_Q>
0

> <i_epik_Tot_abs_Q>
2

> <s_lp_Force_Field>
S-OPLS

> <r_lp_Energy>
60.8191

> <b_lp_Chiralities_Consistent>
1

> <s_lp_Variant>
ligprep_h3d.sdf:815-2

> <ROCS_ShapeQuery>
_7L13

> <ROCS_TanimotoCombo>
0.759 

> <ROCS_ShapeTanimoto>
0.634 

> <ROCS_ColorTanimoto>
0.125 

> <ROCS_RefTversky>
0.775 

> <ROCS_RefColorTversky>
0.297 

> <ROCS_RefTverskyCombo>
1.072 

> <ROCS_FitTversky>
0.777 

> <ROCS_FitColorTversky>
0.177 

> <ROCS_FitTverskyCombo>
0.954 

> <ROCS_ColorScore>
-2.775

> <ROCS_Overlap>
1286.469

> <ROCS_Rank>
433                 

$$$$
ligprep_h3d.sdf:819_1778
  -OEChem-08212117123D

 66 70  0     0  0  0  0  0  0999 V2000
  -19.8216   -3.8823  -32.3520 C   0  0  0  0  0  0  0  0  0  0  0  0
  -20.1248   -6.2690  -32.1315 C   0  0  0  0  0  0  0  0  0  0  0  0
  -19.2387   -4.0720  -33.6048 C   0  0  0  0  0  0  0  0  0  0  0  0
  -19.5419   -6.4588  -33.3844 C   0  0  0  0  0  0  0  0  0  0  0  0
  -16.5573   -5.6050  -26.5374 C   0  0  0  0  0  0  0  0  0  0  0  0
  -22.8395   -4.4084  -28.9633 C   0  0  0  0  0  0  0  0  0  0  0  0
  -20.5543   -4.3776  -25.4924 C   0  0  0  0  0  0  0  0  0  0  0  0
  -16.5290   -4.2038  -26.6702 C   0  0  0  0  0  0  0  0  0  0  0  0
  -20.6926   -4.5825  -27.8974 C   0  0  0  0  0  0  0  0  0  0  0  0
  -20.2647   -4.9808  -31.6152 C   0  0  0  0  0  0  0  0  0  0  0  0
  -20.8720   -4.7830  -30.3096 C   0  0  0  0  0  0  0  0  0  0  0  0
  -19.0988   -5.3603  -34.1211 C   0  0  0  0  0  0  0  0  0  0  0  0
  -22.2458   -4.5995  -30.2135 C   0  0  0  0  0  0  0  0  0  0  0  0
  -20.0952   -4.7747  -29.1547 C   0  0  0  0  0  0  0  0  0  0  0  0
  -22.0869   -4.3958  -27.7922 C   0  0  0  0  0  0  0  0  0  0  0  0
  -19.9345   -4.5697  -26.7188 C   0  0  0  0  0  0  0  0  0  0  0  0
  -21.9234   -4.2036  -25.4897 C   0  0  0  0  0  0  0  0  0  0  0  0
  -17.8934   -5.9232  -26.5397 C   0  0  0  0  0  0  0  0  0  0  0  0
  -19.1691   -7.4487  -36.9828 C   0  0  0  0  0  0  0  0  0  0  0  0
  -22.6347   -3.9992  -24.2394 C   0  0  0  0  0  0  0  0  0  0  0  0
  -20.6885   -5.7327  -36.6471 C   0  0  0  0  0  0  0  0  0  0  0  0
  -21.1388   -6.6167  -37.7835 C   0  0  0  0  0  0  0  0  0  0  0  0
  -23.1267   -4.5981  -31.4224 C   0  0  0  0  0  0  0  0  0  0  0  0
  -18.6173   -4.9793  -29.3368 C   0  0  0  0  0  0  0  0  0  0  0  0
  -18.5687   -7.2313  -26.4316 C   0  0  0  0  0  0  0  0  0  0  0  0
  -18.4753   -5.5632  -35.4605 C   0  0  0  0  0  0  0  0  0  0  0  0
  -24.8009   -4.3067  -23.0131 C   0  0  0  0  0  0  0  0  0  0  0  0
  -26.1639   -4.9136  -23.2914 C   0  0  0  0  0  0  0  0  0  0  0  0
  -17.7502   -3.6688  -26.7512 N   0  0  0  0  0  0  0  0  0  0  0  0
  -22.6911   -4.2091  -26.6034 N   0  0  0  0  0  0  0  0  0  0  0  0
  -18.5583   -4.7394  -26.6691 N   0  0  0  0  0  0  0  0  0  0  0  0
  -19.3682   -6.2217  -36.3888 N   0  0  0  0  0  0  0  0  0  0  0  0
  -23.9567   -4.4568  -24.1766 N   0  0  0  0  0  0  0  0  0  0  0  0
  -18.1972   -8.1838  -36.8759 O   0  0  0  0  0  0  0  0  0  0  0  0
  -22.0831   -3.4220  -23.2846 O   0  0  0  0  0  0  0  0  0  0  0  0
  -20.2722   -7.7623  -37.7397 O   0  0  0  0  0  0  0  0  0  0  0  0
  -26.9790   -4.7954  -22.1323 O   0  0  0  0  0  0  0  0  0  0  0  0
  -19.9230   -2.8719  -31.9629 H   0  0  0  0  0  0  0  0  0  0  0  0
  -20.4659   -7.1353  -31.5696 H   0  0  0  0  0  0  0  0  0  0  0  0
  -18.8953   -3.2105  -34.1713 H   0  0  0  0  0  0  0  0  0  0  0  0
  -19.4374   -7.4660  -33.7792 H   0  0  0  0  0  0  0  0  0  0  0  0
  -15.7240   -6.2870  -26.4524 H   0  0  0  0  0  0  0  0  0  0  0  0
  -23.9179   -4.2658  -28.9028 H   0  0  0  0  0  0  0  0  0  0  0  0
  -19.9902   -4.3633  -24.5639 H   0  0  0  0  0  0  0  0  0  0  0  0
  -15.6694   -3.5504  -26.7116 H   0  0  0  0  0  0  0  0  0  0  0  0
  -20.6804   -4.6727  -36.9131 H   0  0  0  0  0  0  0  0  0  0  0  0
  -21.2970   -5.8862  -35.7505 H   0  0  0  0  0  0  0  0  0  0  0  0
  -22.1760   -6.9430  -37.6661 H   0  0  0  0  0  0  0  0  0  0  0  0
  -21.0191   -6.1335  -38.7586 H   0  0  0  0  0  0  0  0  0  0  0  0
  -23.2191   -3.5821  -31.8211 H   0  0  0  0  0  0  0  0  0  0  0  0
  -22.7209   -5.2479  -32.2064 H   0  0  0  0  0  0  0  0  0  0  0  0
  -24.1280   -4.9734  -31.1807 H   0  0  0  0  0  0  0  0  0  0  0  0
  -18.3823   -6.0454  -29.2877 H   0  0  0  0  0  0  0  0  0  0  0  0
  -18.2884   -4.5849  -30.3023 H   0  0  0  0  0  0  0  0  0  0  0  0
  -18.0555   -4.4532  -28.5599 H   0  0  0  0  0  0  0  0  0  0  0  0
  -18.7754   -7.4859  -25.3792 H   0  0  0  0  0  0  0  0  0  0  0  0
  -19.5288   -7.2475  -26.9751 H   0  0  0  0  0  0  0  0  0  0  0  0
  -17.9619   -8.0469  -26.8609 H   0  0  0  0  0  0  0  0  0  0  0  0
  -18.1808   -4.6044  -35.9098 H   0  0  0  0  0  0  0  0  0  0  0  0
  -17.5647   -6.1744  -35.3927 H   0  0  0  0  0  0  0  0  0  0  0  0
  -24.8811   -3.2396  -22.7829 H   0  0  0  0  0  0  0  0  0  0  0  0
  -24.3199   -4.8190  -22.1743 H   0  0  0  0  0  0  0  0  0  0  0  0
  -26.0598   -5.9779  -23.5241 H   0  0  0  0  0  0  0  0  0  0  0  0
  -26.6646   -4.4129  -24.1265 H   0  0  0  0  0  0  0  0  0  0  0  0
  -24.3796   -4.8641  -25.0042 H   0  0  0  0  0  0  0  0  0  0  0  0
  -27.8366   -5.1935  -22.3519 H   0  0  0  0  0  0  0  0  0  0  0  0
  1  3  1  0  0  0  0
  1 10  2  0  0  0  0
  2  4  2  0  0  0  0
  2 10  1  0  0  0  0
  3 12  2  0  0  0  0
  4 12  1  0  0  0  0
  5  8  1  0  0  0  0
  5 18  2  0  0  0  0
  6 13  2  0  0  0  0
  6 15  1  0  0  0  0
  7 16  1  0  0  0  0
  7 17  2  0  0  0  0
  8 29  2  0  0  0  0
  9 14  1  0  0  0  0
  9 15  1  0  0  0  0
  9 16  2  0  0  0  0
 10 11  1  0  0  0  0
 11 13  1  0  0  0  0
 11 14  2  0  0  0  0
 12 26  1  0  0  0  0
 13 23  1  0  0  0  0
 14 24  1  0  0  0  0
 15 30  2  0  0  0  0
 16 31  1  0  0  0  0
 17 20  1  0  0  0  0
 17 30  1  0  0  0  0
 18 25  1  0  0  0  0
 18 31  1  0  0  0  0
 19 32  1  0  0  0  0
 19 34  2  0  0  0  0
 19 36  1  0  0  0  0
 20 33  1  0  0  0  0
 20 35  2  0  0  0  0
 21 22  1  0  0  0  0
 21 32  1  0  0  0  0
 22 36  1  0  0  0  0
 26 32  1  0  0  0  0
 27 28  1  0  0  0  0
 27 33  1  0  0  0  0
 28 37  1  0  0  0  0
 29 31  1  0  0  0  0
  1 38  1  0  0  0  0
  2 39  1  0  0  0  0
  3 40  1  0  0  0  0
  4 41  1  0  0  0  0
  5 42  1  0  0  0  0
  6 43  1  0  0  0  0
  7 44  1  0  0  0  0
  8 45  1  0  0  0  0
 21 46  1  0  0  0  0
 21 47  1  0  0  0  0
 22 48  1  0  0  0  0
 22 49  1  0  0  0  0
 23 50  1  0  0  0  0
 23 51  1  0  0  0  0
 23 52  1  0  0  0  0
 24 53  1  0  0  0  0
 24 54  1  0  0  0  0
 24 55  1  0  0  0  0
 25 56  1  0  0  0  0
 25 57  1  0  0  0  0
 25 58  1  0  0  0  0
 26 59  1  0  0  0  0
 26 60  1  0  0  0  0
 27 61  1  0  0  0  0
 27 62  1  0  0  0  0
 28 63  1  0  0  0  0
 28 64  1  0  0  0  0
 33 65  1  0  0  0  0
 37 66  1  0  0  0  0
M  END
> <SMILES>
Cc1cc2nc(cc(c2c(c1-c1ccc(cc1)CN1CCOC1=O)C)-n1nccc1C)C(=O)NCCO

> <FORMATTED_ID>
H3D-005516

> <MOLFORMULA>
C28H29N5O4

> <Exact Mass>
499.22

> <XLogP>
3.25

> <TPSA_NOPS>
109.6

> <s_m_source_file>
ligprep_h3d.sdf

> <i_m_source_file_index>
819

> <i_lp_mmshare_version>
55123

> <i_f3d_flags>
0

> <s_epik_input>
W09IXVtDSDJdW0NIMl1bTkhdQyg9TyljKG4xKVtjSF1jKC1uMm5bY0hdW2NIXWMyW0NIM10pYyhjMTMpYyhbQ0gzXSljKGMoW0NIM10pW2NIXTMpLWM0W2NIXVtjSF1jKFtjSF1bY0hdNClbQ0gyXU41W0NIMl1bQ0gyXU9DNT1P

> <s_epik_cmdline>
J2VwaWtfcHl0aG9uJywgJy1waHQnLCAnMC41JywgJy1waCcsICc3LjUnLCAnLXRuJywgJzgnLCAnLW1hJywgJzUwMCcsICctaW1hZScsICc8aW5maWxlLm1hZT4nLCAnLW9tYWUnLCAnPG91dGZpbGUubWFlPic=

> <r_lp_tautomer_probability>
1

> <r_epik_Ionization_Penalty>
1.88811e-05

> <r_epik_Ionization_Penalty_Charging>
0

> <r_epik_Ionization_Penalty_Neutral>
1.88811e-05

> <r_epik_State_Penalty>
-0

> <r_epik_Charging_Adjusted_Penalty>
0

> <i_epik_Tot_Q>
0

> <i_epik_Tot_abs_Q>
0

> <s_epik_Chemistry_Notes>
This compound has an ester and may undergo hydrolysis at high or low pH.

> <s_lp_Force_Field>
S-OPLS

> <r_lp_Energy>
40.5236

> <b_lp_Chiralities_Consistent>
1

> <s_lp_Variant>
ligprep_h3d.sdf:819-1

> <ROCS_ShapeQuery>
_7L13

> <ROCS_TanimotoCombo>
0.774 

> <ROCS_ShapeTanimoto>
0.614 

> <ROCS_ColorTanimoto>
0.160 

> <ROCS_RefTversky>
0.775 

> <ROCS_RefColorTversky>
0.317 

> <ROCS_RefTverskyCombo>
1.092 

> <ROCS_FitTversky>
0.747 

> <ROCS_FitColorTversky>
0.245 

> <ROCS_FitTverskyCombo>
0.992 

> <ROCS_ColorScore>
-2.902

> <ROCS_Overlap>
1289.181

> <ROCS_Rank>
434                 

$$$$
ligprep_h3d.sdf:695_1660
  -OEChem-08212117123D

 68 72  0     1  0  0  0  0  0999 V2000
  -16.8274   -5.4144  -25.5250 C   0  0  0  0  0  0  0  0  0  0  0  0
  -22.4688   -4.2870  -29.3968 C   0  0  0  0  0  0  0  0  0  0  0  0
  -20.9642   -4.5765  -25.5338 C   0  0  0  0  0  0  0  0  0  0  0  0
  -16.7180   -4.1752  -26.1841 C   0  0  0  0  0  0  0  0  0  0  0  0
  -20.5842   -4.4943  -27.9200 C   0  0  0  0  0  0  0  0  0  0  0  0
  -21.6161   -4.2989  -30.5034 C   0  0  0  0  0  0  0  0  0  0  0  0
  -19.7263   -4.5063  -29.0329 C   0  0  0  0  0  0  0  0  0  0  0  0
  -21.9793   -4.3833  -28.0971 C   0  0  0  0  0  0  0  0  0  0  0  0
  -20.0909   -4.5911  -26.6118 C   0  0  0  0  0  0  0  0  0  0  0  0
  -20.2430   -4.4087  -30.3216 C   0  0  0  0  0  0  0  0  0  0  0  0
  -22.3125   -4.4645  -25.8064 C   0  0  0  0  0  0  0  0  0  0  0  0
  -18.1610   -5.7319  -25.6100 C   0  0  0  0  0  0  0  0  0  0  0  0
  -23.2807   -4.4440  -24.7233 C   0  0  0  0  0  0  0  0  0  0  0  0
  -18.0460   -5.5766  -33.1451 C   0  0  0  0  0  0  0  0  0  0  0  0
  -19.6901   -3.7391  -33.7550 C   0  0  0  0  0  0  0  0  0  0  0  0
  -18.5289   -5.5676  -31.6899 C   0  0  0  0  0  0  0  0  0  0  0  0
  -19.2905   -3.2941  -32.3475 C   0  0  0  0  0  0  0  0  0  0  0  0
  -19.3044   -7.2124  -36.1390 C   0  0  0  0  0  0  0  0  0  0  0  0
  -20.3117   -6.1495  -34.2416 C   0  0  0  0  0  0  0  0  0  0  0  0
  -18.1606   -6.2071  -36.0749 C   0  0  0  0  0  0  0  0  0  0  0  0
  -19.1403   -5.1395  -34.1511 C   0  0  0  0  0  0  0  0  0  0  0  0
  -22.2124   -4.1932  -31.8697 C   0  0  0  0  0  0  0  0  0  0  0  0
  -18.2328   -4.6221  -28.9245 C   0  0  0  0  0  0  0  0  0  0  0  0
  -18.9018   -6.9064  -25.1094 C   0  0  0  0  0  0  0  0  0  0  0  0
  -20.9538   -8.3974  -34.8414 C   0  0  0  0  0  0  0  0  0  0  0  0
  -23.6952   -3.8370  -22.3253 C   0  0  0  0  0  0  0  0  0  0  0  0
  -17.8887   -3.7356  -26.6533 N   0  0  0  0  0  0  0  0  0  0  0  0
  -22.8292   -4.3688  -27.0529 N   0  0  0  0  0  0  0  0  0  0  0  0
  -18.7464   -4.7038  -26.2887 N   0  0  0  0  0  0  0  0  0  0  0  0
  -19.4002   -4.4202  -31.4269 N   0  0  0  0  0  0  0  0  0  0  0  0
  -19.8562   -7.4331  -34.7964 N   0  0  1  0  0  0  0  0  0  0  0  0
  -22.8580   -3.9063  -23.5013 N   0  0  0  0  0  0  0  0  0  0  0  0
  -24.4239   -4.9076  -24.8876 O   0  0  0  0  0  0  0  0  0  0  0  0
  -18.5772   -4.9839  -35.4698 O   0  0  0  0  0  0  0  0  0  0  0  0
  -16.0469   -5.9947  -25.0551 H   0  0  0  0  0  0  0  0  0  0  0  0
  -23.5431   -4.1989  -29.5548 H   0  0  0  0  0  0  0  0  0  0  0  0
  -20.6080   -4.6490  -24.5100 H   0  0  0  0  0  0  0  0  0  0  0  0
  -15.8338   -3.5744  -26.3421 H   0  0  0  0  0  0  0  0  0  0  0  0
  -17.1601   -4.9320  -33.2127 H   0  0  0  0  0  0  0  0  0  0  0  0
  -17.6998   -6.5904  -33.3981 H   0  0  0  0  0  0  0  0  0  0  0  0
  -20.7887   -3.7363  -33.8380 H   0  0  0  0  0  0  0  0  0  0  0  0
  -19.3204   -2.9854  -34.4679 H   0  0  0  0  0  0  0  0  0  0  0  0
  -19.0699   -6.5054  -31.4980 H   0  0  0  0  0  0  0  0  0  0  0  0
  -17.6658   -5.5472  -31.0087 H   0  0  0  0  0  0  0  0  0  0  0  0
  -18.2665   -2.9108  -32.3527 H   0  0  0  0  0  0  0  0  0  0  0  0
  -19.9526   -2.4810  -32.0380 H   0  0  0  0  0  0  0  0  0  0  0  0
  -20.0842   -6.8347  -36.8144 H   0  0  0  0  0  0  0  0  0  0  0  0
  -18.9258   -8.1530  -36.5566 H   0  0  0  0  0  0  0  0  0  0  0  0
  -20.7368   -6.3020  -33.2424 H   0  0  0  0  0  0  0  0  0  0  0  0
  -21.1054   -5.7349  -34.8775 H   0  0  0  0  0  0  0  0  0  0  0  0
  -17.2921   -6.6130  -35.5447 H   0  0  0  0  0  0  0  0  0  0  0  0
  -17.8259   -5.9694  -37.0905 H   0  0  0  0  0  0  0  0  0  0  0  0
  -22.2888   -3.1419  -32.1694 H   0  0  0  0  0  0  0  0  0  0  0  0
  -21.6024   -4.7251  -32.6096 H   0  0  0  0  0  0  0  0  0  0  0  0
  -23.2136   -4.6399  -31.8996 H   0  0  0  0  0  0  0  0  0  0  0  0
  -17.9394   -5.6751  -28.9453 H   0  0  0  0  0  0  0  0  0  0  0  0
  -17.7421   -4.0990  -29.7505 H   0  0  0  0  0  0  0  0  0  0  0  0
  -17.8752   -4.1707  -27.9943 H   0  0  0  0  0  0  0  0  0  0  0  0
  -19.2739   -6.7347  -24.0861 H   0  0  0  0  0  0  0  0  0  0  0  0
  -19.7700   -7.1498  -25.7454 H   0  0  0  0  0  0  0  0  0  0  0  0
  -18.2743   -7.8139  -25.0902 H   0  0  0  0  0  0  0  0  0  0  0  0
  -21.3521   -8.5479  -33.8271 H   0  0  0  0  0  0  0  0  0  0  0  0
  -21.7513   -8.0147  -35.4953 H   0  0  0  0  0  0  0  0  0  0  0  0
  -20.5842   -9.3553  -35.2359 H   0  0  0  0  0  0  0  0  0  0  0  0
  -24.1889   -2.8549  -22.2833 H   0  0  0  0  0  0  0  0  0  0  0  0
  -24.4575   -4.6288  -22.3709 H   0  0  0  0  0  0  0  0  0  0  0  0
  -23.0766   -3.9750  -21.4262 H   0  0  0  0  0  0  0  0  0  0  0  0
  -21.8958   -3.5995  -23.4016 H   0  0  0  0  0  0  0  0  0  0  0  0
  1  4  1  0  0  0  0
  1 12  2  0  0  0  0
  2  6  2  0  0  0  0
  2  8  1  0  0  0  0
  3  9  1  0  0  0  0
  3 11  2  0  0  0  0
  4 27  2  0  0  0  0
  5  7  1  0  0  0  0
  5  8  1  0  0  0  0
  5  9  2  0  0  0  0
  6 10  1  0  0  0  0
  6 22  1  0  0  0  0
  7 10  2  0  0  0  0
  7 23  1  0  0  0  0
  8 28  2  0  0  0  0
  9 29  1  0  0  0  0
 10 30  1  0  0  0  0
 11 13  1  0  0  0  0
 11 28  1  0  0  0  0
 12 24  1  0  0  0  0
 12 29  1  0  0  0  0
 13 32  1  0  0  0  0
 13 33  2  0  0  0  0
 14 16  1  0  0  0  0
 14 21  1  0  0  0  0
 15 17  1  0  0  0  0
 15 21  1  0  0  0  0
 16 30  1  0  0  0  0
 17 30  1  0  0  0  0
 18 20  1  0  0  0  0
 18 31  1  0  0  0  0
 19 21  1  0  0  0  0
 19 31  1  0  0  0  0
 20 34  1  0  0  0  0
 21 34  1  0  0  0  0
 25 31  1  0  0  0  0
 26 32  1  0  0  0  0
 27 29  1  0  0  0  0
  1 35  1  0  0  0  0
  2 36  1  0  0  0  0
  3 37  1  0  0  0  0
  4 38  1  0  0  0  0
 14 39  1  0  0  0  0
 14 40  1  0  0  0  0
 15 41  1  0  0  0  0
 15 42  1  0  0  0  0
 16 43  1  0  0  0  0
 16 44  1  0  0  0  0
 17 45  1  0  0  0  0
 17 46  1  0  0  0  0
 18 47  1  0  0  0  0
 18 48  1  0  0  0  0
 19 49  1  0  0  0  0
 19 50  1  0  0  0  0
 20 51  1  0  0  0  0
 20 52  1  0  0  0  0
 22 53  1  0  0  0  0
 22 54  1  0  0  0  0
 22 55  1  0  0  0  0
 23 56  1  0  0  0  0
 23 57  1  0  0  0  0
 23 58  1  0  0  0  0
 24 59  1  0  0  0  0
 24 60  1  0  0  0  0
 24 61  1  0  0  0  0
 25 62  1  0  0  0  0
 25 63  1  0  0  0  0
 25 64  1  0  0  0  0
 26 65  1  0  0  0  0
 26 66  1  0  0  0  0
 26 67  1  0  0  0  0
 32 68  1  0  0  0  0
M  END
> <SMILES>
CNC(=O)c1cc(c2c(c(c(cc2n1)C)N1CCC2(CC1)CN(C)CCO2)C)-n1nccc1C

> <FORMATTED_ID>
H3D-004890

> <MOLFORMULA>
C26H34N6O2

> <Exact Mass>
462.27

> <XLogP>
2.27

> <TPSA_NOPS>
75.5

> <s_m_source_file>
ligprep_h3d.sdf

> <i_m_source_file_index>
695

> <i_lp_mmshare_version>
55123

> <i_f3d_flags>
0

> <s_epik_input>
W0NIM11jMVtjSF1bY0hdbm4xLWMyW2NIXWMoQyg9TylbTkhdW0NIM10pbmMoYzIzKVtjSF1jKFtDSDNdKWMoYzNbQ0gzXSlOKFtDSDJdW0NIMl00KVtDSDJdW0NIMl1DNDVbQ0gyXU4oW0NIM10pW0NIMl1bQ0gyXU81

> <s_epik_cmdline>
J2VwaWtfcHl0aG9uJywgJy1waHQnLCAnMC41JywgJy1waCcsICc3LjUnLCAnLXRuJywgJzgnLCAnLW1hJywgJzUwMCcsICctaW1hZScsICc8aW5maWxlLm1hZT4nLCAnLW9tYWUnLCAnPG91dGZpbGUubWFlPic=

> <r_lp_tautomer_probability>
1

> <r_epik_Ionization_Penalty>
0.379352

> <r_epik_Ionization_Penalty_Charging>
0

> <r_epik_Ionization_Penalty_Neutral>
0.379352

> <r_epik_State_Penalty>
0.377038

> <r_epik_Charging_Adjusted_Penalty>
0.377038

> <i_epik_Tot_Q>
0

> <i_epik_Tot_abs_Q>
0

> <s_lp_Force_Field>
S-OPLS

> <r_lp_Energy>
68.7685

> <b_lp_Chiralities_Consistent>
1

> <s_lp_Variant>
ligprep_h3d.sdf:695-1

> <ROCS_ShapeQuery>
_7L13

> <ROCS_TanimotoCombo>
0.709 

> <ROCS_ShapeTanimoto>
0.655 

> <ROCS_ColorTanimoto>
0.055 

> <ROCS_RefTversky>
0.775 

> <ROCS_RefColorTversky>
0.114 

> <ROCS_RefTverskyCombo>
0.888 

> <ROCS_FitTversky>
0.809 

> <ROCS_FitColorTversky>
0.095 

> <ROCS_FitTverskyCombo>
0.904 

> <ROCS_ColorScore>
-1.035

> <ROCS_Overlap>
1283.447

> <ROCS_Rank>
435                 

$$$$
ligprep_h3d.sdf:1356_1916
  -OEChem-08212117123D

 79 83  0     1  0  0  0  0  0999 V2000
  -16.4598   -5.2806  -26.0750 C   0  0  0  0  0  0  0  0  0  0  0  0
  -22.6145   -4.4838  -28.9463 C   0  0  0  0  0  0  0  0  0  0  0  0
  -20.5398   -4.0798  -25.3683 C   0  0  0  0  0  0  0  0  0  0  0  0
  -16.4569   -3.8966  -26.3326 C   0  0  0  0  0  0  0  0  0  0  0  0
  -20.5310   -4.5017  -27.7488 C   0  0  0  0  0  0  0  0  0  0  0  0
  -21.9437   -4.7686  -30.1383 C   0  0  0  0  0  0  0  0  0  0  0  0
  -19.8560   -4.7881  -28.9476 C   0  0  0  0  0  0  0  0  0  0  0  0
  -21.9330   -4.3458  -27.7403 C   0  0  0  0  0  0  0  0  0  0  0  0
  -19.8444   -4.3627  -26.5350 C   0  0  0  0  0  0  0  0  0  0  0  0
  -20.5628   -4.9210  -30.1393 C   0  0  0  0  0  0  0  0  0  0  0  0
  -21.9103   -3.9450  -25.4590 C   0  0  0  0  0  0  0  0  0  0  0  0
  -17.7857   -5.6359  -26.1220 C   0  0  0  0  0  0  0  0  0  0  0  0
  -22.6985   -3.6496  -24.2748 C   0  0  0  0  0  0  0  0  0  0  0  0
  -19.5486   -6.1529  -34.8762 C   0  0  0  0  0  0  0  0  0  0  0  0
  -18.4946   -6.7252  -32.6801 C   0  0  0  0  0  0  0  0  0  0  0  0
  -18.8139   -4.3185  -33.3623 C   0  0  0  0  0  0  0  0  0  0  0  0
  -20.0831   -7.3505  -37.8101 C   0  0  0  0  0  0  0  0  0  0  0  0
  -19.6317   -9.3000  -37.0527 C   0  0  0  0  0  0  0  0  0  0  0  0
  -19.6910   -6.6022  -31.7341 C   0  0  0  0  0  0  0  0  0  0  0  0
  -20.0215   -4.2332  -32.4291 C   0  0  0  0  0  0  0  0  0  0  0  0
  -18.5377   -5.7405  -33.8466 C   0  0  0  0  0  0  0  0  0  0  0  0
  -20.1949   -8.0103  -36.4203 C   0  0  1  0  0  0  0  0  0  0  0  0
  -19.0581   -8.4394  -38.2007 C   0  0  1  0  0  0  0  0  0  0  0  0
  -22.7409   -4.9044  -31.3952 C   0  0  0  0  0  0  0  0  0  0  0  0
  -18.3677   -4.9684  -29.0359 C   0  0  0  0  0  0  0  0  0  0  0  0
  -18.4351   -6.9479  -25.9332 C   0  0  0  0  0  0  0  0  0  0  0  0
  -26.6086   -6.7700  -22.0175 C   0  0  0  0  0  0  0  0  0  0  0  0
  -24.9970   -3.2136  -23.3708 C   0  0  0  0  0  0  0  0  0  0  0  0
  -26.0310   -4.3035  -23.1624 C   0  0  0  0  0  0  0  0  0  0  0  0
  -17.6837   -3.4061  -26.5288 N   0  0  0  0  0  0  0  0  0  0  0  0
  -22.6105   -4.0712  -26.6096 N   0  0  0  0  0  0  0  0  0  0  0  0
  -18.4698   -4.4879  -26.3946 N   0  0  0  0  0  0  0  0  0  0  0  0
  -19.8969   -5.2065  -31.3371 N   0  0  0  0  0  0  0  0  0  0  0  0
  -24.0830   -3.5273  -24.4455 N   0  0  0  0  0  0  0  0  0  0  0  0
  -19.3315   -7.4107  -35.4056 N   0  0  0  0  0  0  0  0  0  0  0  0
  -22.1469   -3.4949  -23.1700 O   0  0  0  0  0  0  0  0  0  0  0  0
  -20.4600   -5.3877  -35.1685 O   0  0  0  0  0  0  0  0  0  0  0  0
  -25.0024   -6.5303  -24.0658 O   0  0  0  0  0  0  0  0  0  0  0  0
  -24.2489   -5.6634  -21.8180 O   0  0  0  0  0  0  0  0  0  0  0  0
  -19.1914   -8.9887  -39.5223 O   0  0  0  0  0  0  0  0  0  0  0  0
  -25.2945   -5.8681  -22.8059 S   0  0  0  0  0  0  0  0  0  0  0  0
  -15.6169   -5.9283  -25.8828 H   0  0  0  0  0  0  0  0  0  0  0  0
  -23.6974   -4.3656  -28.9612 H   0  0  0  0  0  0  0  0  0  0  0  0
  -20.0318   -3.9661  -24.4147 H   0  0  0  0  0  0  0  0  0  0  0  0
  -15.6120   -3.2252  -26.3856 H   0  0  0  0  0  0  0  0  0  0  0  0
  -17.5760   -6.5502  -32.1046 H   0  0  0  0  0  0  0  0  0  0  0  0
  -18.4387   -7.7557  -33.0521 H   0  0  0  0  0  0  0  0  0  0  0  0
  -18.9755   -3.6508  -34.2174 H   0  0  0  0  0  0  0  0  0  0  0  0
  -17.9291   -3.9433  -32.8318 H   0  0  0  0  0  0  0  0  0  0  0  0
  -21.0133   -7.3866  -38.3895 H   0  0  0  0  0  0  0  0  0  0  0  0
  -19.7038   -6.3244  -37.8282 H   0  0  0  0  0  0  0  0  0  0  0  0
  -18.8894   -9.8448  -36.4616 H   0  0  0  0  0  0  0  0  0  0  0  0
  -20.4067  -10.0071  -37.3717 H   0  0  0  0  0  0  0  0  0  0  0  0
  -20.5954   -6.9880  -32.2218 H   0  0  0  0  0  0  0  0  0  0  0  0
  -19.5038   -7.2263  -30.8510 H   0  0  0  0  0  0  0  0  0  0  0  0
  -20.0745   -3.2149  -32.0233 H   0  0  0  0  0  0  0  0  0  0  0  0
  -20.9505   -4.4098  -32.9852 H   0  0  0  0  0  0  0  0  0  0  0  0
  -17.5686   -5.7524  -34.3595 H   0  0  0  0  0  0  0  0  0  0  0  0
  -21.2161   -8.1012  -36.0415 H   0  0  0  0  0  0  0  0  0  0  0  0
  -18.0222   -8.1274  -38.0177 H   0  0  0  0  0  0  0  0  0  0  0  0
  -22.8329   -3.9322  -31.8923 H   0  0  0  0  0  0  0  0  0  0  0  0
  -22.2678   -5.6095  -32.0891 H   0  0  0  0  0  0  0  0  0  0  0  0
  -23.7469   -5.2877  -31.1857 H   0  0  0  0  0  0  0  0  0  0  0  0
  -18.1109   -6.0196  -28.8800 H   0  0  0  0  0  0  0  0  0  0  0  0
  -17.9959   -4.6521  -30.0149 H   0  0  0  0  0  0  0  0  0  0  0  0
  -17.8579   -4.3612  -28.2818 H   0  0  0  0  0  0  0  0  0  0  0  0
  -18.6958   -7.1135  -24.8750 H   0  0  0  0  0  0  0  0  0  0  0  0
  -19.3618   -7.0399  -26.5250 H   0  0  0  0  0  0  0  0  0  0  0  0
  -17.7856   -7.7808  -26.2528 H   0  0  0  0  0  0  0  0  0  0  0  0
  -26.2378   -7.7630  -21.7588 H   0  0  0  0  0  0  0  0  0  0  0  0
  -26.9079   -6.2276  -21.1194 H   0  0  0  0  0  0  0  0  0  0  0  0
  -27.4432   -6.8434  -22.7162 H   0  0  0  0  0  0  0  0  0  0  0  0
  -25.4670   -2.2537  -23.6065 H   0  0  0  0  0  0  0  0  0  0  0  0
  -24.3937   -3.0895  -22.4664 H   0  0  0  0  0  0  0  0  0  0  0  0
  -26.6240   -4.4445  -24.0710 H   0  0  0  0  0  0  0  0  0  0  0  0
  -26.7056   -4.0705  -22.3331 H   0  0  0  0  0  0  0  0  0  0  0  0
  -24.4754   -3.6003  -25.3785 H   0  0  0  0  0  0  0  0  0  0  0  0
  -18.5335   -7.9439  -35.0734 H   0  0  0  0  0  0  0  0  0  0  0  0
  -18.4871   -9.6448  -39.6078 H   0  0  0  0  0  0  0  0  0  0  0  0
  1  4  1  0  0  0  0
  1 12  2  0  0  0  0
  2  6  2  0  0  0  0
  2  8  1  0  0  0  0
  3  9  1  0  0  0  0
  3 11  2  0  0  0  0
  4 30  2  0  0  0  0
  5  7  1  0  0  0  0
  5  8  1  0  0  0  0
  5  9  2  0  0  0  0
  6 10  1  0  0  0  0
  6 24  1  0  0  0  0
  7 10  2  0  0  0  0
  7 25  1  0  0  0  0
  8 31  2  0  0  0  0
  9 32  1  0  0  0  0
 10 33  1  0  0  0  0
 11 13  1  0  0  0  0
 11 31  1  0  0  0  0
 12 26  1  0  0  0  0
 12 32  1  0  0  0  0
 13 34  1  0  0  0  0
 13 36  2  0  0  0  0
 14 21  1  0  0  0  0
 14 35  1  0  0  0  0
 14 37  2  0  0  0  0
 15 19  1  0  0  0  0
 15 21  1  0  0  0  0
 16 20  1  0  0  0  0
 16 21  1  0  0  0  0
 17 22  1  0  0  0  0
 17 23  1  0  0  0  0
 18 22  1  0  0  0  0
 18 23  1  0  0  0  0
 19 33  1  0  0  0  0
 20 33  1  0  0  0  0
 22 35  1  0  0  0  0
 23 40  1  0  0  0  0
 27 41  1  0  0  0  0
 28 29  1  0  0  0  0
 28 34  1  0  0  0  0
 29 41  1  0  0  0  0
 30 32  1  0  0  0  0
 38 41  2  0  0  0  0
 39 41  2  0  0  0  0
  1 42  1  0  0  0  0
  2 43  1  0  0  0  0
  3 44  1  0  0  0  0
  4 45  1  0  0  0  0
 15 46  1  0  0  0  0
 15 47  1  0  0  0  0
 16 48  1  0  0  0  0
 16 49  1  0  0  0  0
 17 50  1  0  0  0  0
 17 51  1  0  0  0  0
 18 52  1  0  0  0  0
 18 53  1  0  0  0  0
 19 54  1  0  0  0  0
 19 55  1  0  0  0  0
 20 56  1  0  0  0  0
 20 57  1  0  0  0  0
 21 58  1  0  0  0  0
 22 59  1  0  0  0  0
 23 60  1  0  0  0  0
 24 61  1  0  0  0  0
 24 62  1  0  0  0  0
 24 63  1  0  0  0  0
 25 64  1  0  0  0  0
 25 65  1  0  0  0  0
 25 66  1  0  0  0  0
 26 67  1  0  0  0  0
 26 68  1  0  0  0  0
 26 69  1  0  0  0  0
 27 70  1  0  0  0  0
 27 71  1  0  0  0  0
 27 72  1  0  0  0  0
 28 73  1  0  0  0  0
 28 74  1  0  0  0  0
 29 75  1  0  0  0  0
 29 76  1  0  0  0  0
 34 77  1  0  0  0  0
 35 78  1  0  0  0  0
 40 79  1  0  0  0  0
M  END
> <SMILES>
Cc1cc2nc(cc(c2c(c1N1CCC(CC1)C(=O)N[C@H]1C[C@H](O)C1)C)-n1nccc1C)C(=O)NCCS(=O)(=O)C

> <FORMATTED_ID>
H3D-009178

> <MOLFORMULA>
C29H38N6O5S

> <Exact Mass>
582.26

> <XLogP>
1.29

> <TPSA_NOPS>
154.9

> <s_m_source_file>
ligprep_h3d.sdf

> <i_m_source_file_index>
1356

> <i_lp_mmshare_version>
55123

> <i_f3d_flags>
0

> <s_epik_input>
W09IXVtDQEhdKFtDSDJdMSlbQ0gyXVtDQEBIXTFbTkhdQyg9TylbQ0hdKFtDSDJdW0NIMl0yKVtDSDJdW0NIMl1OMmMoYyhbQ0gzXSlbY0hdMyljKFtDSDNdKWMoYzM0KWMoLW41bltjSF1bY0hdYzVbQ0gzXSlbY0hdYyhuNClDKD1PKVtOSF1bQ0gyXVtDSDJdUyg9TykoPU8pW0NIM10=

> <s_epik_cmdline>
J2VwaWtfcHl0aG9uJywgJy1waHQnLCAnMC41JywgJy1waCcsICc3LjUnLCAnLXRuJywgJzgnLCAnLW1hJywgJzUwMCcsICctaW1hZScsICc8aW5maWxlLm1hZT4nLCAnLW9tYWUnLCAnPG91dGZpbGUubWFlPic=

> <r_lp_tautomer_probability>
1

> <r_epik_Ionization_Penalty>
7.52197e-05

> <r_epik_Ionization_Penalty_Charging>
0

> <r_epik_Ionization_Penalty_Neutral>
7.52197e-05

> <r_epik_State_Penalty>
-0

> <r_epik_Charging_Adjusted_Penalty>
0

> <i_epik_Tot_Q>
0

> <i_epik_Tot_abs_Q>
0

> <s_lp_Force_Field>
S-OPLS

> <r_lp_Energy>
65.0447

> <b_lp_Chiralities_Consistent>
1

> <s_lp_Variant>
ligprep_h3d.sdf:1356-1

> <ROCS_ShapeQuery>
_7L13

> <ROCS_TanimotoCombo>
0.666 

> <ROCS_ShapeTanimoto>
0.582 

> <ROCS_ColorTanimoto>
0.084 

> <ROCS_RefTversky>
0.775 

> <ROCS_RefColorTversky>
0.200 

> <ROCS_RefTverskyCombo>
0.975 

> <ROCS_FitTversky>
0.701 

> <ROCS_FitColorTversky>
0.127 

> <ROCS_FitTverskyCombo>
0.827 

> <ROCS_ColorScore>
-1.864

> <ROCS_Overlap>
1293.706

> <ROCS_Rank>
436                 

$$$$
ligprep_h3d.sdf:1004_1225
  -OEChem-08212117123D

 68 72  0     1  0  0  0  0  0999 V2000
  -16.7920   -5.6204  -26.6575 C   0  0  0  0  0  0  0  0  0  0  0  0
  -23.2329   -4.5310  -28.6793 C   0  0  0  0  0  0  0  0  0  0  0  0
  -20.7152   -4.3729  -25.3769 C   0  0  0  0  0  0  0  0  0  0  0  0
  -16.7819   -4.2246  -26.8400 C   0  0  0  0  0  0  0  0  0  0  0  0
  -21.0170   -4.6610  -27.7582 C   0  0  0  0  0  0  0  0  0  0  0  0
  -22.7253   -4.7631  -29.9601 C   0  0  0  0  0  0  0  0  0  0  0  0
  -20.5062   -4.8945  -29.0463 C   0  0  0  0  0  0  0  0  0  0  0  0
  -22.4018   -4.4755  -27.5638 C   0  0  0  0  0  0  0  0  0  0  0  0
  -20.1799   -4.6050  -26.6356 C   0  0  0  0  0  0  0  0  0  0  0  0
  -21.3603   -4.9451  -30.1442 C   0  0  0  0  0  0  0  0  0  0  0  0
  -22.0818   -4.2034  -25.2859 C   0  0  0  0  0  0  0  0  0  0  0  0
  -18.1230   -5.9437  -26.5547 C   0  0  0  0  0  0  0  0  0  0  0  0
  -19.1803   -6.3591  -36.1903 C   0  0  0  0  0  0  0  0  0  0  0  0
  -22.7066   -3.9577  -23.9974 C   0  0  0  0  0  0  0  0  0  0  0  0
  -19.7151   -6.6579  -33.0423 C   0  0  0  0  0  0  0  0  0  0  0  0
  -20.0054   -4.2256  -33.5355 C   0  0  0  0  0  0  0  0  0  0  0  0
  -20.7460   -6.5570  -31.9181 C   0  0  0  0  0  0  0  0  0  0  0  0
  -21.0620   -4.1279  -32.4385 C   0  0  0  0  0  0  0  0  0  0  0  0
  -21.1404   -5.9437  -35.0359 C   0  0  0  0  0  0  0  0  0  0  0  0
  -19.9393   -5.6229  -34.1521 C   0  0  0  0  0  0  0  0  0  0  0  0
  -23.6773   -4.8111  -31.1112 C   0  0  0  0  0  0  0  0  0  0  0  0
  -19.0464   -5.1018  -29.3320 C   0  0  0  0  0  0  0  0  0  0  0  0
  -18.7808   -7.2498  -26.3545 C   0  0  0  0  0  0  0  0  0  0  0  0
  -26.7599   -5.4051  -23.6313 C   0  0  0  0  0  0  0  0  0  0  0  0
  -24.7814   -4.2293  -22.6147 C   0  0  0  0  0  0  0  0  0  0  0  0
  -26.2687   -4.1367  -22.9466 C   0  0  1  0  0  0  0  0  0  0  0  0
  -18.0091   -3.6974  -26.8529 N   0  0  0  0  0  0  0  0  0  0  0  0
  -22.9241   -4.2499  -26.3434 N   0  0  0  0  0  0  0  0  0  0  0  0
  -18.8027   -4.7676  -26.6774 N   0  0  0  0  0  0  0  0  0  0  0  0
  -20.5382   -6.5749  -36.1652 N   0  0  0  0  0  0  0  0  0  0  0  0
  -20.8580   -5.1778  -31.4310 N   0  0  0  0  0  0  0  0  0  0  0  0
  -24.0185   -4.4173  -23.8277 N   0  0  0  0  0  0  0  0  0  0  0  0
  -18.3998   -6.6932  -37.0702 O   0  0  0  0  0  0  0  0  0  0  0  0
  -22.0939   -3.3456  -23.1036 O   0  0  0  0  0  0  0  0  0  0  0  0
  -18.8124   -5.6784  -35.0583 O   0  0  0  0  0  0  0  0  0  0  0  0
  -26.4708   -3.0345  -23.8290 O   0  0  0  0  0  0  0  0  0  0  0  0
  -15.9505   -6.2959  -26.6081 H   0  0  0  0  0  0  0  0  0  0  0  0
  -24.3053   -4.3887  -28.5506 H   0  0  0  0  0  0  0  0  0  0  0  0
  -20.0886   -4.3236  -24.4907 H   0  0  0  0  0  0  0  0  0  0  0  0
  -15.9315   -3.5697  -26.9642 H   0  0  0  0  0  0  0  0  0  0  0  0
  -18.7161   -6.5323  -32.5998 H   0  0  0  0  0  0  0  0  0  0  0  0
  -19.7482   -7.6726  -33.4676 H   0  0  0  0  0  0  0  0  0  0  0  0
  -20.2218   -3.4832  -34.3147 H   0  0  0  0  0  0  0  0  0  0  0  0
  -19.0347   -3.9617  -33.0964 H   0  0  0  0  0  0  0  0  0  0  0  0
  -21.7153   -6.9047  -32.3000 H   0  0  0  0  0  0  0  0  0  0  0  0
  -20.4650   -7.2218  -31.0895 H   0  0  0  0  0  0  0  0  0  0  0  0
  -21.0183   -3.1420  -31.9598 H   0  0  0  0  0  0  0  0  0  0  0  0
  -22.0535   -4.2292  -32.8953 H   0  0  0  0  0  0  0  0  0  0  0  0
  -21.8729   -6.6099  -34.5733 H   0  0  0  0  0  0  0  0  0  0  0  0
  -21.6510   -5.0462  -35.3990 H   0  0  0  0  0  0  0  0  0  0  0  0
  -23.8032   -3.8109  -31.5406 H   0  0  0  0  0  0  0  0  0  0  0  0
  -23.3153   -5.4864  -31.8957 H   0  0  0  0  0  0  0  0  0  0  0  0
  -24.6596   -5.1836  -30.7964 H   0  0  0  0  0  0  0  0  0  0  0  0
  -18.8022   -6.1654  -29.2655 H   0  0  0  0  0  0  0  0  0  0  0  0
  -18.7915   -4.7394  -30.3322 H   0  0  0  0  0  0  0  0  0  0  0  0
  -18.4290   -4.5490  -28.6176 H   0  0  0  0  0  0  0  0  0  0  0  0
  -18.9113   -7.4687  -25.2821 H   0  0  0  0  0  0  0  0  0  0  0  0
  -19.7766   -7.2885  -26.8281 H   0  0  0  0  0  0  0  0  0  0  0  0
  -18.2005   -8.0774  -26.7973 H   0  0  0  0  0  0  0  0  0  0  0  0
  -26.1908   -5.6112  -24.5429 H   0  0  0  0  0  0  0  0  0  0  0  0
  -26.6784   -6.2687  -22.9620 H   0  0  0  0  0  0  0  0  0  0  0  0
  -27.8186   -5.3120  -23.8966 H   0  0  0  0  0  0  0  0  0  0  0  0
  -24.4349   -3.3141  -22.1227 H   0  0  0  0  0  0  0  0  0  0  0  0
  -24.5862   -5.0739  -21.9459 H   0  0  0  0  0  0  0  0  0  0  0  0
  -26.8547   -3.9544  -22.0383 H   0  0  0  0  0  0  0  0  0  0  0  0
  -21.0467   -7.1133  -36.8600 H   0  0  0  0  0  0  0  0  0  0  0  0
  -24.4950   -4.8548  -24.6096 H   0  0  0  0  0  0  0  0  0  0  0  0
  -27.4233   -2.9939  -24.0046 H   0  0  0  0  0  0  0  0  0  0  0  0
  1  4  1  0  0  0  0
  1 12  2  0  0  0  0
  2  6  2  0  0  0  0
  2  8  1  0  0  0  0
  3  9  1  0  0  0  0
  3 11  2  0  0  0  0
  4 27  2  0  0  0  0
  5  7  1  0  0  0  0
  5  8  1  0  0  0  0
  5  9  2  0  0  0  0
  6 10  1  0  0  0  0
  6 21  1  0  0  0  0
  7 10  2  0  0  0  0
  7 22  1  0  0  0  0
  8 28  2  0  0  0  0
  9 29  1  0  0  0  0
 10 31  1  0  0  0  0
 11 14  1  0  0  0  0
 11 28  1  0  0  0  0
 12 23  1  0  0  0  0
 12 29  1  0  0  0  0
 13 30  1  0  0  0  0
 13 33  2  0  0  0  0
 13 35  1  0  0  0  0
 14 32  1  0  0  0  0
 14 34  2  0  0  0  0
 15 17  1  0  0  0  0
 15 20  1  0  0  0  0
 16 18  1  0  0  0  0
 16 20  1  0  0  0  0
 17 31  1  0  0  0  0
 18 31  1  0  0  0  0
 19 20  1  0  0  0  0
 19 30  1  0  0  0  0
 20 35  1  0  0  0  0
 24 26  1  0  0  0  0
 25 26  1  0  0  0  0
 25 32  1  0  0  0  0
 26 36  1  0  0  0  0
 27 29  1  0  0  0  0
  1 37  1  0  0  0  0
  2 38  1  0  0  0  0
  3 39  1  0  0  0  0
  4 40  1  0  0  0  0
 15 41  1  0  0  0  0
 15 42  1  0  0  0  0
 16 43  1  0  0  0  0
 16 44  1  0  0  0  0
 17 45  1  0  0  0  0
 17 46  1  0  0  0  0
 18 47  1  0  0  0  0
 18 48  1  0  0  0  0
 19 49  1  0  0  0  0
 19 50  1  0  0  0  0
 21 51  1  0  0  0  0
 21 52  1  0  0  0  0
 21 53  1  0  0  0  0
 22 54  1  0  0  0  0
 22 55  1  0  0  0  0
 22 56  1  0  0  0  0
 23 57  1  0  0  0  0
 23 58  1  0  0  0  0
 23 59  1  0  0  0  0
 24 60  1  0  0  0  0
 24 61  1  0  0  0  0
 24 62  1  0  0  0  0
 25 63  1  0  0  0  0
 25 64  1  0  0  0  0
 26 65  1  0  0  0  0
 30 66  1  0  0  0  0
 32 67  1  0  0  0  0
 36 68  1  0  0  0  0
M  END
> <SMILES>
C[C@H](O)CNC(=O)c1cc(c2c(c(c(cc2n1)C)N1CCC2(CC1)CNC(=O)O2)C)-n1nccc1C

> <FORMATTED_ID>
H3D-006150

> <MOLFORMULA>
C26H32N6O4

> <Exact Mass>
492.25

> <XLogP>
1.61

> <TPSA_NOPS>
121.6

> <s_m_source_file>
ligprep_h3d.sdf

> <i_m_source_file_index>
1004

> <i_lp_mmshare_version>
55123

> <i_f3d_flags>
0

> <s_epik_input>
W0NIM11jMVtjSF1bY0hdbm4xLWMyW2NIXWMoQyg9TylbTkhdW0NIMl1bQ0BIXShbQ0gzXSlbT0hdKW5jKGMyMylbY0hdYyhbQ0gzXSljKGMzW0NIM10pTihbQ0gyXVtDSDJdNClbQ0gyXVtDSDJdQzQ1W0NIMl1bTkhdQyg9TylPNQ==

> <s_epik_cmdline>
J2VwaWtfcHl0aG9uJywgJy1waHQnLCAnMC41JywgJy1waCcsICc3LjUnLCAnLXRuJywgJzgnLCAnLW1hJywgJzUwMCcsICctaW1hZScsICc8aW5maWxlLm1hZT4nLCAnLW9tYWUnLCAnPG91dGZpbGUubWFlPic=

> <r_lp_tautomer_probability>
1

> <r_epik_Ionization_Penalty>
7.28267e-05

> <r_epik_Ionization_Penalty_Charging>
0

> <r_epik_Ionization_Penalty_Neutral>
7.28267e-05

> <r_epik_State_Penalty>
-0

> <r_epik_Charging_Adjusted_Penalty>
0

> <i_epik_Tot_Q>
0

> <i_epik_Tot_abs_Q>
0

> <s_epik_Chemistry_Notes>
This compound has an ester and may undergo hydrolysis at high or low pH.

> <s_lp_Force_Field>
S-OPLS

> <r_lp_Energy>
55.9642

> <b_lp_Chiralities_Consistent>
1

> <s_lp_Variant>
ligprep_h3d.sdf:1004-1

> <ROCS_ShapeQuery>
_7L13

> <ROCS_TanimotoCombo>
0.729 

> <ROCS_ShapeTanimoto>
0.627 

> <ROCS_ColorTanimoto>
0.102 

> <ROCS_RefTversky>
0.774 

> <ROCS_RefColorTversky>
0.221 

> <ROCS_RefTverskyCombo>
0.996 

> <ROCS_FitTversky>
0.767 

> <ROCS_FitColorTversky>
0.159 

> <ROCS_FitTverskyCombo>
0.926 

> <ROCS_ColorScore>
-2.037

> <ROCS_Overlap>
1286.841

> <ROCS_Rank>
437                 

$$$$
ligprep_h3d.sdf:5353_1575
  -OEChem-08212117123D

 58 63  0     0  0  0  0  0  0999 V2000
  -19.3925   -5.2520  -35.6182 C   0  0  0  0  0  0  0  0  0  0  0  0
  -19.4943   -6.4795  -34.9637 C   0  0  0  0  0  0  0  0  0  0  0  0
  -20.1026   -4.1484  -35.1452 C   0  0  0  0  0  0  0  0  0  0  0  0
  -20.3063   -6.6036  -33.8364 C   0  0  0  0  0  0  0  0  0  0  0  0
  -20.9146   -4.2725  -34.0179 C   0  0  0  0  0  0  0  0  0  0  0  0
  -23.5318   -4.4361  -28.1668 C   0  0  0  0  0  0  0  0  0  0  0  0
  -23.3620   -4.4084  -29.5539 C   0  0  0  0  0  0  0  0  0  0  0  0
  -20.9522   -4.4574  -29.2966 C   0  0  0  0  0  0  0  0  0  0  0  0
  -27.4388   -5.3499  -23.2690 C   0  0  0  0  0  0  0  0  0  0  0  0
  -26.5652   -4.6634  -22.4590 C   0  0  0  0  0  0  0  0  0  0  0  0
  -21.1293   -4.4787  -27.9183 C   0  0  0  0  0  0  0  0  0  0  0  0
  -21.0165   -5.5001  -33.3634 C   0  0  0  0  0  0  0  0  0  0  0  0
  -22.4083   -4.4665  -27.3484 C   0  0  0  0  0  0  0  0  0  0  0  0
  -22.0798   -4.4177  -30.1155 C   0  0  0  0  0  0  0  0  0  0  0  0
  -25.6523   -5.1402  -24.4235 C   0  0  0  0  0  0  0  0  0  0  0  0
  -24.5871   -5.1248  -25.3711 C   0  0  0  0  0  0  0  0  0  0  0  0
  -23.2189   -3.9072  -23.7635 C   0  0  0  0  0  0  0  0  0  0  0  0
  -24.2170   -3.9167  -22.8656 C   0  0  0  0  0  0  0  0  0  0  0  0
  -23.4041   -4.5361  -25.0760 C   0  0  0  0  0  0  0  0  0  0  0  0
  -19.4304   -5.9717  -26.8344 C   0  0  0  0  0  0  0  0  0  0  0  0
  -18.9947   -3.4800  -26.9827 C   0  0  0  0  0  0  0  0  0  0  0  0
  -20.9517   -4.3370  -25.5627 C   0  0  0  0  0  0  0  0  0  0  0  0
  -18.2895   -6.0983  -25.8318 C   0  0  0  0  0  0  0  0  0  0  0  0
  -17.8849   -3.6292  -25.9515 C   0  0  0  0  0  0  0  0  0  0  0  0
  -20.0774   -4.5682  -26.8385 C   0  0  0  0  0  0  0  0  0  0  0  0
  -21.8903   -5.6330  -32.1509 C   0  0  0  0  0  0  0  0  0  0  0  0
  -26.8692   -5.6419  -24.4823 N   0  0  0  0  0  0  0  0  0  0  0  0
  -25.4186   -4.5283  -23.1985 N   0  0  0  0  0  0  0  0  0  0  0  0
  -22.3613   -4.4942  -25.9411 N   0  0  0  0  0  0  0  0  0  0  0  0
  -17.3050   -5.0004  -26.0563 N   0  3  0  0  0  0  0  0  0  0  0  0
  -21.9341   -4.3808  -31.4691 O   0  0  0  0  0  0  0  0  0  0  0  0
  -18.7592   -5.1552  -36.4952 H   0  0  0  0  0  0  0  0  0  0  0  0
  -18.9406   -7.3386  -35.3312 H   0  0  0  0  0  0  0  0  0  0  0  0
  -20.0228   -3.1923  -35.6539 H   0  0  0  0  0  0  0  0  0  0  0  0
  -20.3797   -7.5640  -33.3330 H   0  0  0  0  0  0  0  0  0  0  0  0
  -21.4643   -3.4074  -33.6567 H   0  0  0  0  0  0  0  0  0  0  0  0
  -24.5364   -4.4388  -27.7571 H   0  0  0  0  0  0  0  0  0  0  0  0
  -24.2374   -4.3777  -30.1979 H   0  0  0  0  0  0  0  0  0  0  0  0
  -19.9575   -4.4613  -29.7307 H   0  0  0  0  0  0  0  0  0  0  0  0
  -28.4510   -5.6486  -23.0387 H   0  0  0  0  0  0  0  0  0  0  0  0
  -26.6567   -4.2718  -21.4552 H   0  0  0  0  0  0  0  0  0  0  0  0
  -24.7497   -5.5978  -26.3348 H   0  0  0  0  0  0  0  0  0  0  0  0
  -22.2700   -3.4363  -23.5298 H   0  0  0  0  0  0  0  0  0  0  0  0
  -24.1290   -3.4657  -21.8847 H   0  0  0  0  0  0  0  0  0  0  0  0
  -19.0402   -6.2096  -27.8356 H   0  0  0  0  0  0  0  0  0  0  0  0
  -20.1861   -6.7434  -26.6250 H   0  0  0  0  0  0  0  0  0  0  0  0
  -19.4350   -2.4809  -26.8953 H   0  0  0  0  0  0  0  0  0  0  0  0
  -18.5471   -3.5306  -27.9823 H   0  0  0  0  0  0  0  0  0  0  0  0
  -20.7192   -5.0815  -24.7894 H   0  0  0  0  0  0  0  0  0  0  0  0
  -20.7830   -3.3496  -25.1183 H   0  0  0  0  0  0  0  0  0  0  0  0
  -18.6321   -6.0262  -24.7928 H   0  0  0  0  0  0  0  0  0  0  0  0
  -17.7483   -7.0422  -25.9622 H   0  0  0  0  0  0  0  0  0  0  0  0
  -17.0708   -2.9255  -26.1385 H   0  0  0  0  0  0  0  0  0  0  0  0
  -18.2388   -3.5035  -24.9260 H   0  0  0  0  0  0  0  0  0  0  0  0
  -22.9087   -5.9225  -32.4317 H   0  0  0  0  0  0  0  0  0  0  0  0
  -21.4981   -6.3980  -31.4722 H   0  0  0  0  0  0  0  0  0  0  0  0
  -16.5378   -5.0925  -25.3764 H   0  0  0  0  0  0  0  0  0  0  0  0
  -16.8688   -5.1163  -26.9818 H   0  0  0  0  0  0  0  0  0  0  0  0
  1  2  2  0  0  0  0
  1  3  1  0  0  0  0
  2  4  1  0  0  0  0
  3  5  2  0  0  0  0
  4 12  2  0  0  0  0
  5 12  1  0  0  0  0
  6  7  1  0  0  0  0
  6 13  2  0  0  0  0
  7 14  2  0  0  0  0
  8 11  2  0  0  0  0
  8 14  1  0  0  0  0
  9 10  2  0  0  0  0
  9 27  1  0  0  0  0
 10 28  1  0  0  0  0
 11 13  1  0  0  0  0
 11 25  1  0  0  0  0
 12 26  1  0  0  0  0
 13 29  1  0  0  0  0
 14 31  1  0  0  0  0
 15 16  1  0  0  0  0
 15 27  2  0  0  0  0
 15 28  1  0  0  0  0
 16 19  2  0  0  0  0
 17 18  2  0  0  0  0
 17 19  1  0  0  0  0
 18 28  1  0  0  0  0
 19 29  1  0  0  0  0
 20 23  1  0  0  0  0
 20 25  1  0  0  0  0
 21 24  1  0  0  0  0
 21 25  1  0  0  0  0
 22 25  1  0  0  0  0
 22 29  1  0  0  0  0
 23 30  1  0  0  0  0
 24 30  1  0  0  0  0
 26 31  1  0  0  0  0
  1 32  1  0  0  0  0
  2 33  1  0  0  0  0
  3 34  1  0  0  0  0
  4 35  1  0  0  0  0
  5 36  1  0  0  0  0
  6 37  1  0  0  0  0
  7 38  1  0  0  0  0
  8 39  1  0  0  0  0
  9 40  1  0  0  0  0
 10 41  1  0  0  0  0
 16 42  1  0  0  0  0
 17 43  1  0  0  0  0
 18 44  1  0  0  0  0
 20 45  1  0  0  0  0
 20 46  1  0  0  0  0
 21 47  1  0  0  0  0
 21 48  1  0  0  0  0
 22 49  1  0  0  0  0
 22 50  1  0  0  0  0
 23 51  1  0  0  0  0
 23 52  1  0  0  0  0
 24 53  1  0  0  0  0
 24 54  1  0  0  0  0
 26 55  1  0  0  0  0
 26 56  1  0  0  0  0
 30 57  1  0  0  0  0
 30 58  1  0  0  0  0
M  CHG  1  30   1
M  END
> <SMILES>
C1CC2(CCN1)CN(c1ccn3ccnc3c1)c1ccc(cc12)OCc1ccccc1

> <FORMATTED_ID>
H3D-015055

> <MOLFORMULA>
C26H26N4O

> <Exact Mass>
410.21

> <XLogP>
5.79

> <TPSA_NOPS>
41.8

> <s_m_source_file>
ligprep_h3d.sdf

> <i_m_source_file_index>
5353

> <i_lp_mmshare_version>
55123

> <i_f3d_flags>
0

> <s_epik_input>
W0NIMl0xW0NIMl1bTkhdW0NIMl1bQ0gyXUMxMmMzYyhOKFtDSDJdMiljKFtjSF1bY0hdNClbY0hdYyhuNDUpbltjSF1bY0hdNSlbY0hdW2NIXWMoW2NIXTMpT1tDSDJdYzZbY0hdW2NIXVtjSF1bY0hdW2NIXTY=

> <s_epik_cmdline>
J2VwaWtfcHl0aG9uJywgJy1waHQnLCAnMC41JywgJy1waCcsICc3LjUnLCAnLXRuJywgJzgnLCAnLW1hJywgJzUwMCcsICctaW1hZScsICc8aW5maWxlLm1hZT4nLCAnLW9tYWUnLCAnPG91dGZpbGUubWFlPic=

> <r_lp_tautomer_probability>
1

> <r_epik_Ionization_Penalty>
0.425285

> <r_epik_Ionization_Penalty_Charging>
0.425285

> <r_epik_Ionization_Penalty_Neutral>
6.15886e-10

> <r_epik_State_Penalty>
0.423923

> <r_epik_Charging_Adjusted_Penalty>
0.849208

> <i_epik_Tot_Q>
1

> <i_epik_Tot_abs_Q>
1

> <s_lp_Force_Field>
S-OPLS

> <r_lp_Energy>
70.2685

> <b_lp_Chiralities_Consistent>
1

> <s_lp_Variant>
ligprep_h3d.sdf:5353-2

> <ROCS_ShapeQuery>
_7L13

> <ROCS_TanimotoCombo>
0.811 

> <ROCS_ShapeTanimoto>
0.695 

> <ROCS_ColorTanimoto>
0.116 

> <ROCS_RefTversky>
0.774 

> <ROCS_RefColorTversky>
0.219 

> <ROCS_RefTverskyCombo>
0.993 

> <ROCS_FitTversky>
0.872 

> <ROCS_FitColorTversky>
0.198 

> <ROCS_FitTverskyCombo>
1.070 

> <ROCS_ColorScore>
-1.979

> <ROCS_Overlap>
1278.152

> <ROCS_Rank>
438                 

$$$$
ligprep_h3d.sdf:2918_940
  -OEChem-08212117123D

 62 66  0     0  0  0  0  0  0999 V2000
  -19.5995   -3.4441  -24.6278 C   0  0  0  0  0  0  0  0  0  0  0  0
  -20.0645   -4.5479  -26.7261 C   0  0  0  0  0  0  0  0  0  0  0  0
  -18.5234   -4.3053  -24.4133 C   0  0  0  0  0  0  0  0  0  0  0  0
  -18.9884   -5.4091  -26.5115 C   0  0  0  0  0  0  0  0  0  0  0  0
  -20.1185   -6.7739  -32.7815 C   0  0  0  0  0  0  0  0  0  0  0  0
  -20.0530   -7.8334  -33.6863 C   0  0  0  0  0  0  0  0  0  0  0  0
  -25.5521   -5.1551  -24.9474 C   0  0  0  0  0  0  0  0  0  0  0  0
  -23.2912   -3.9238  -23.7388 C   0  0  0  0  0  0  0  0  0  0  0  0
  -19.8035   -6.2639  -35.5061 C   0  0  0  0  0  0  0  0  0  0  0  0
  -20.3701   -3.5654  -25.7842 C   0  0  0  0  0  0  0  0  0  0  0  0
  -18.2179   -5.2878  -25.3551 C   0  0  0  0  0  0  0  0  0  0  0  0
  -20.0266   -5.4593  -33.2390 C   0  0  0  0  0  0  0  0  0  0  0  0
  -24.5926   -4.4993  -25.7371 C   0  0  0  0  0  0  0  0  0  0  0  0
  -23.4959   -3.9054  -25.1188 C   0  0  0  0  0  0  0  0  0  0  0  0
  -19.8691   -5.2043  -34.6012 C   0  0  0  0  0  0  0  0  0  0  0  0
  -25.3672   -5.1860  -23.5594 C   0  0  0  0  0  0  0  0  0  0  0  0
  -24.2561   -4.5806  -22.9679 C   0  0  0  0  0  0  0  0  0  0  0  0
  -19.8955   -7.5784  -35.0486 C   0  0  0  0  0  0  0  0  0  0  0  0
  -23.4351   -3.6447  -27.3149 C   0  0  0  0  0  0  0  0  0  0  0  0
  -23.2679   -4.8870  -30.2745 C   0  0  0  0  0  0  0  0  0  0  0  0
  -23.0601   -2.4540  -30.8489 C   0  0  0  0  0  0  0  0  0  0  0  0
  -21.8206   -5.0772  -30.7394 C   0  0  0  0  0  0  0  0  0  0  0  0
  -21.6198   -2.7255  -31.2950 C   0  0  0  0  0  0  0  0  0  0  0  0
  -23.5368   -3.4581  -29.7968 C   0  0  0  0  0  0  0  0  0  0  0  0
  -21.5309   -2.6365  -26.0167 C   0  0  0  0  0  0  0  0  0  0  0  0
  -20.0999   -4.3312  -32.2509 C   0  0  0  0  0  0  0  0  0  0  0  0
  -17.0662   -6.2072  -25.1258 C   0  0  0  0  0  0  0  0  0  0  0  0
  -24.5376   -4.3273  -27.1013 N   0  0  0  0  0  0  0  0  0  0  0  0
  -22.7726   -3.3666  -26.1518 N   0  0  0  0  0  0  0  0  0  0  0  0
  -21.4661   -4.1034  -31.7806 N   0  0  0  0  0  0  0  0  0  0  0  0
  -22.9110   -3.2095  -28.5174 N   0  0  0  0  0  0  0  0  0  0  0  0
  -19.7770   -3.9263  -35.0645 O   0  0  0  0  0  0  0  0  0  0  0  0
  -26.2703   -5.8074  -22.7882 F   0  0  0  0  0  0  0  0  0  0  0  0
  -24.1103   -4.6300  -21.6362 F   0  0  0  0  0  0  0  0  0  0  0  0
  -16.4026   -5.9721  -23.9552 F   0  0  0  0  0  0  0  0  0  0  0  0
  -17.4205   -7.5254  -25.0755 F   0  0  0  0  0  0  0  0  0  0  0  0
  -16.1208   -6.1194  -26.1064 F   0  0  0  0  0  0  0  0  0  0  0  0
  -19.8131   -8.8864  -36.1636 Cl  0  0  0  0  0  0  0  0  0  0  0  0
  -19.8304   -2.6818  -23.8884 H   0  0  0  0  0  0  0  0  0  0  0  0
  -20.6588   -4.6484  -27.6305 H   0  0  0  0  0  0  0  0  0  0  0  0
  -17.9277   -4.2022  -23.5103 H   0  0  0  0  0  0  0  0  0  0  0  0
  -18.7571   -6.1718  -27.2504 H   0  0  0  0  0  0  0  0  0  0  0  0
  -20.2424   -6.9828  -31.7222 H   0  0  0  0  0  0  0  0  0  0  0  0
  -20.1276   -8.8527  -33.3164 H   0  0  0  0  0  0  0  0  0  0  0  0
  -26.4186   -5.6287  -25.3974 H   0  0  0  0  0  0  0  0  0  0  0  0
  -22.4294   -3.4543  -23.2782 H   0  0  0  0  0  0  0  0  0  0  0  0
  -19.6808   -6.0575  -36.5668 H   0  0  0  0  0  0  0  0  0  0  0  0
  -23.9436   -5.1144  -31.1099 H   0  0  0  0  0  0  0  0  0  0  0  0
  -23.5041   -5.6089  -29.4833 H   0  0  0  0  0  0  0  0  0  0  0  0
  -23.1467   -1.4282  -30.4703 H   0  0  0  0  0  0  0  0  0  0  0  0
  -23.7218   -2.5161  -31.7232 H   0  0  0  0  0  0  0  0  0  0  0  0
  -21.1387   -5.0022  -29.8823 H   0  0  0  0  0  0  0  0  0  0  0  0
  -21.7251   -6.0945  -31.1385 H   0  0  0  0  0  0  0  0  0  0  0  0
  -21.3776   -2.0217  -32.1008 H   0  0  0  0  0  0  0  0  0  0  0  0
  -20.9266   -2.5201  -30.4690 H   0  0  0  0  0  0  0  0  0  0  0  0
  -24.6310   -3.3321  -29.6599 H   0  0  0  0  0  0  0  0  0  0  0  0
  -21.6399   -1.9242  -25.1898 H   0  0  0  0  0  0  0  0  0  0  0  0
  -21.3844   -2.0388  -26.9246 H   0  0  0  0  0  0  0  0  0  0  0  0
  -19.4731   -4.5417  -31.3775 H   0  0  0  0  0  0  0  0  0  0  0  0
  -19.7380   -3.3972  -32.6934 H   0  0  0  0  0  0  0  0  0  0  0  0
  -22.0438   -2.6903  -28.5105 H   0  0  0  0  0  0  0  0  0  0  0  0
  -19.6708   -3.9264  -36.0286 H   0  0  0  0  0  0  0  0  0  0  0  0
  1  3  1  0  0  0  0
  1 10  2  0  0  0  0
  2  4  2  0  0  0  0
  2 10  1  0  0  0  0
  3 11  2  0  0  0  0
  4 11  1  0  0  0  0
  5  6  1  0  0  0  0
  5 12  2  0  0  0  0
  6 18  2  0  0  0  0
  7 13  2  0  0  0  0
  7 16  1  0  0  0  0
  8 14  2  0  0  0  0
  8 17  1  0  0  0  0
  9 15  2  0  0  0  0
  9 18  1  0  0  0  0
 10 25  1  0  0  0  0
 11 27  1  0  0  0  0
 12 15  1  0  0  0  0
 12 26  1  0  0  0  0
 13 14  1  0  0  0  0
 13 28  1  0  0  0  0
 14 29  1  0  0  0  0
 15 32  1  0  0  0  0
 16 17  2  0  0  0  0
 16 33  1  0  0  0  0
 17 34  1  0  0  0  0
 18 38  1  0  0  0  0
 19 28  2  0  0  0  0
 19 29  1  0  0  0  0
 19 31  1  0  0  0  0
 20 22  1  0  0  0  0
 20 24  1  0  0  0  0
 21 23  1  0  0  0  0
 21 24  1  0  0  0  0
 22 30  1  0  0  0  0
 23 30  1  0  0  0  0
 24 31  1  0  0  0  0
 25 29  1  0  0  0  0
 26 30  1  0  0  0  0
 27 35  1  0  0  0  0
 27 36  1  0  0  0  0
 27 37  1  0  0  0  0
  1 39  1  0  0  0  0
  2 40  1  0  0  0  0
  3 41  1  0  0  0  0
  4 42  1  0  0  0  0
  5 43  1  0  0  0  0
  6 44  1  0  0  0  0
  7 45  1  0  0  0  0
  8 46  1  0  0  0  0
  9 47  1  0  0  0  0
 20 48  1  0  0  0  0
 20 49  1  0  0  0  0
 21 50  1  0  0  0  0
 21 51  1  0  0  0  0
 22 52  1  0  0  0  0
 22 53  1  0  0  0  0
 23 54  1  0  0  0  0
 23 55  1  0  0  0  0
 24 56  1  0  0  0  0
 25 57  1  0  0  0  0
 25 58  1  0  0  0  0
 26 59  1  0  0  0  0
 26 60  1  0  0  0  0
 31 61  1  0  0  0  0
 32 62  1  0  0  0  0
M  END
> <SMILES>
Oc1cc(ccc1CN1CCC(CC1)Nc1nc2cc(c(cc2n1Cc1ccc(cc1)C(F)(F)F)F)F)Cl

> <FORMATTED_ID>
H3D-012700

> <MOLFORMULA>
C27H24ClF5N4O

> <Exact Mass>
550.16

> <XLogP>
8.14

> <TPSA_NOPS>
53.3

> <s_m_source_file>
ligprep_h3d.sdf

> <i_m_source_file_index>
2918

> <i_lp_mmshare_version>
55123

> <i_f3d_flags>
0

> <s_epik_input>
W09IXWMxW2NIXWMoQ2wpW2NIXVtjSF1jMVtDSDJdTjJbQ0gyXVtDSDJdW0NIXShbQ0gyXVtDSDJdMilbTkhdYyhuMyluKGMoYzM0KVtjSF1jKEYpYyhGKVtjSF00KVtDSDJdYzVbY0hdW2NIXWMoQyhGKShGKUYpW2NIXVtjSF01

> <s_epik_cmdline>
J2VwaWtfcHl0aG9uJywgJy1waHQnLCAnMC41JywgJy1waCcsICc3LjUnLCAnLXRuJywgJzgnLCAnLW1hJywgJzUwMCcsICctaW1hZScsICc8aW5maWxlLm1hZT4nLCAnLW9tYWUnLCAnPG91dGZpbGUubWFlPic=

> <r_lp_tautomer_probability>
1

> <r_epik_Ionization_Penalty>
0.369575

> <r_epik_Ionization_Penalty_Charging>
0

> <r_epik_Ionization_Penalty_Neutral>
0.369575

> <r_epik_State_Penalty>
0.398044

> <r_epik_Charging_Adjusted_Penalty>
0.398044

> <i_epik_Tot_Q>
0

> <i_epik_Tot_abs_Q>
0

> <s_lp_Force_Field>
S-OPLS

> <r_lp_Energy>
31.6483

> <b_lp_Chiralities_Consistent>
1

> <s_lp_Variant>
ligprep_h3d.sdf:2918-1

> <ROCS_ShapeQuery>
_7L13

> <ROCS_TanimotoCombo>
0.711 

> <ROCS_ShapeTanimoto>
0.608 

> <ROCS_ColorTanimoto>
0.104 

> <ROCS_RefTversky>
0.774 

> <ROCS_RefColorTversky>
0.198 

> <ROCS_RefTverskyCombo>
0.972 

> <ROCS_FitTversky>
0.738 

> <ROCS_FitColorTversky>
0.179 

> <ROCS_FitTverskyCombo>
0.918 

> <ROCS_ColorScore>
-1.788

> <ROCS_Overlap>
1289.496

> <ROCS_Rank>
439                 

$$$$
ligprep_h3d.sdf:1638_1789
  -OEChem-08212117123D

 96102  0     1  0  0  0  0  0999 V2000
  -20.2728   -0.0255  -19.7710 C   0  0  0  0  0  0  0  0  0  0  0  0
  -15.2621   -5.3477  -26.2842 C   0  0  0  0  0  0  0  0  0  0  0  0
  -21.6248    0.0238  -19.4319 C   0  0  0  0  0  0  0  0  0  0  0  0
  -19.8287   -0.9272  -20.7383 C   0  0  0  0  0  0  0  0  0  0  0  0
  -16.0265   -6.2718  -25.5720 C   0  0  0  0  0  0  0  0  0  0  0  0
  -15.8260   -4.1358  -26.6829 C   0  0  0  0  0  0  0  0  0  0  0  0
  -22.5329   -0.8286  -20.0599 C   0  0  0  0  0  0  0  0  0  0  0  0
  -20.7368   -1.7796  -21.3662 C   0  0  0  0  0  0  0  0  0  0  0  0
  -22.6152   -3.8671  -22.1290 C   0  0  0  0  0  0  0  0  0  0  0  0
  -24.3554   -2.2136  -21.8555 C   0  0  0  0  0  0  0  0  0  0  0  0
  -17.3549   -5.9841  -25.2585 C   0  0  0  0  0  0  0  0  0  0  0  0
  -17.1544   -3.8480  -26.3695 C   0  0  0  0  0  0  0  0  0  0  0  0
  -23.5236   -4.7193  -22.7567 C   0  0  0  0  0  0  0  0  0  0  0  0
  -25.2639   -3.0658  -22.4833 C   0  0  0  0  0  0  0  0  0  0  0  0
  -20.1548   -6.7677  -36.1476 C   0  0  0  0  0  0  0  0  0  0  0  0
  -20.7777   -5.6679  -35.5506 C   0  0  0  0  0  0  0  0  0  0  0  0
  -19.0920   -7.3771  -34.0508 C   0  0  0  0  0  0  0  0  0  0  0  0
  -19.6993   -5.7500  -32.1045 C   0  0  0  0  0  0  0  0  0  0  0  0
  -19.7092   -6.2744  -33.4273 C   0  0  0  0  0  0  0  0  0  0  0  0
  -22.0889   -1.7304  -21.0271 C   0  0  0  0  0  0  0  0  0  0  0  0
  -23.0311   -2.6142  -21.6783 C   0  0  0  0  0  0  0  0  0  0  0  0
  -24.8479   -4.3187  -22.9339 C   0  0  0  0  0  0  0  0  0  0  0  0
  -17.9188   -4.7722  -25.6573 C   0  0  0  0  0  0  0  0  0  0  0  0
  -19.3245   -7.6104  -35.4111 C   0  0  0  0  0  0  0  0  0  0  0  0
  -20.5361   -5.4470  -34.1901 C   0  0  0  0  0  0  0  0  0  0  0  0
  -20.5051   -4.6349  -32.0901 C   0  0  0  0  0  0  0  0  0  0  0  0
  -20.8151   -3.7480  -30.9597 C   0  0  0  0  0  0  0  0  0  0  0  0
  -23.9430   -4.3104  -26.5099 C   0  0  0  0  0  0  0  0  0  0  0  0
  -26.8643   -6.0181  -25.7640 C   0  0  0  0  0  0  0  0  0  0  0  0
  -23.6372   -5.7086  -29.2336 C   0  0  0  0  0  0  0  0  0  0  0  0
  -22.8307   -5.9896  -27.9648 C   0  0  0  0  0  0  0  0  0  0  0  0
  -22.7959   -5.2130  -30.4069 C   0  0  0  0  0  0  0  0  0  0  0  0
  -22.2821   -3.1340  -29.0785 C   0  0  0  0  0  0  0  0  0  0  0  0
  -20.3761   -4.0165  -27.5877 C   0  0  0  0  0  0  0  0  0  0  0  0
  -21.7205   -5.1111  -25.8624 C   0  0  0  0  0  0  0  0  0  0  0  0
  -21.8428   -3.5935  -27.6836 C   0  0  2  0  0  0  0  0  0  0  0  0
  -22.6146   -4.7636  -27.0599 C   0  0  2  0  0  0  0  0  0  0  0  0
  -18.6744   -8.7764  -36.0789 C   0  0  0  0  0  0  0  0  0  0  0  0
  -29.2783   -6.2241  -26.3541 C   0  0  0  0  0  0  0  0  0  0  0  0
  -25.8309   -5.2409  -23.6129 C   0  0  0  0  0  0  0  0  0  0  0  0
  -19.3477   -4.4621  -25.3207 C   0  0  0  0  0  0  0  0  0  0  0  0
  -25.8796   -5.0407  -25.1320 C   0  0  1  0  0  0  0  0  0  0  0  0
  -21.0055   -4.4604  -33.3525 N   0  0  0  0  0  0  0  0  0  0  0  0
  -21.9302   -4.0546  -30.1595 N   0  0  0  0  0  0  0  0  0  0  0  0
  -24.5946   -5.2662  -25.7540 N   0  0  0  0  0  0  0  0  0  0  0  0
  -28.1449   -5.4884  -25.8413 N   0  0  0  0  0  0  0  0  0  0  0  0
  -20.3095   -4.9181  -26.3713 N   0  3  2  0  0  0  0  0  0  0  0  0
  -20.0575   -2.7921  -30.7978 O   0  0  0  0  0  0  0  0  0  0  0  0
  -24.3431   -3.1780  -26.7534 O   0  0  0  0  0  0  0  0  0  0  0  0
  -26.5483   -7.1528  -26.1153 O   0  0  0  0  0  0  0  0  0  0  0  0
  -19.5662    0.6395  -19.2832 H   0  0  0  0  0  0  0  0  0  0  0  0
  -14.2274   -5.5714  -26.5270 H   0  0  0  0  0  0  0  0  0  0  0  0
  -21.9710    0.7270  -18.6801 H   0  0  0  0  0  0  0  0  0  0  0  0
  -18.7763   -0.9651  -21.0038 H   0  0  0  0  0  0  0  0  0  0  0  0
  -15.5873   -7.2151  -25.2605 H   0  0  0  0  0  0  0  0  0  0  0  0
  -15.2308   -3.4156  -27.2365 H   0  0  0  0  0  0  0  0  0  0  0  0
  -23.5838   -0.7779  -19.7846 H   0  0  0  0  0  0  0  0  0  0  0  0
  -20.3761   -2.4769  -22.1187 H   0  0  0  0  0  0  0  0  0  0  0  0
  -21.5865   -4.1941  -21.9977 H   0  0  0  0  0  0  0  0  0  0  0  0
  -24.6947   -1.2398  -21.5103 H   0  0  0  0  0  0  0  0  0  0  0  0
  -17.9430   -6.7102  -24.7034 H   0  0  0  0  0  0  0  0  0  0  0  0
  -17.5854   -2.9013  -26.6843 H   0  0  0  0  0  0  0  0  0  0  0  0
  -23.1911   -5.6941  -23.1036 H   0  0  0  0  0  0  0  0  0  0  0  0
  -26.2937   -2.7454  -22.6176 H   0  0  0  0  0  0  0  0  0  0  0  0
  -20.3277   -6.9595  -37.2042 H   0  0  0  0  0  0  0  0  0  0  0  0
  -21.4239   -5.0124  -36.1247 H   0  0  0  0  0  0  0  0  0  0  0  0
  -18.4438   -8.0368  -33.4802 H   0  0  0  0  0  0  0  0  0  0  0  0
  -19.1584   -6.1493  -31.2567 H   0  0  0  0  0  0  0  0  0  0  0  0
  -24.1090   -6.6455  -29.5456 H   0  0  0  0  0  0  0  0  0  0  0  0
  -24.4520   -5.0087  -29.0380 H   0  0  0  0  0  0  0  0  0  0  0  0
  -23.3875   -6.7378  -27.3984 H   0  0  0  0  0  0  0  0  0  0  0  0
  -21.8750   -6.4370  -28.2297 H   0  0  0  0  0  0  0  0  0  0  0  0
  -22.1486   -6.0377  -30.7833 H   0  0  0  0  0  0  0  0  0  0  0  0
  -23.4750   -5.0007  -31.2613 H   0  0  0  0  0  0  0  0  0  0  0  0
  -23.3804   -3.0101  -29.0788 H   0  0  0  0  0  0  0  0  0  0  0  0
  -21.8787   -2.1335  -29.3183 H   0  0  0  0  0  0  0  0  0  0  0  0
  -20.0573   -4.6296  -28.4397 H   0  0  0  0  0  0  0  0  0  0  0  0
  -19.6788   -3.1824  -27.4550 H   0  0  0  0  0  0  0  0  0  0  0  0
  -21.8548   -4.4970  -24.9705 H   0  0  0  0  0  0  0  0  0  0  0  0
  -21.7855   -6.1675  -25.5887 H   0  0  0  0  0  0  0  0  0  0  0  0
  -21.9577   -2.7119  -27.0075 H   0  0  0  0  0  0  0  0  0  0  0  0
  -17.6997   -8.4858  -36.4883 H   0  0  0  0  0  0  0  0  0  0  0  0
  -18.5243   -9.6044  -35.3747 H   0  0  0  0  0  0  0  0  0  0  0  0
  -19.2955   -9.1626  -36.8970 H   0  0  0  0  0  0  0  0  0  0  0  0
  -29.3630   -6.0591  -27.4383 H   0  0  0  0  0  0  0  0  0  0  0  0
  -29.1386   -7.2972  -26.1565 H   0  0  0  0  0  0  0  0  0  0  0  0
  -30.1961   -5.8763  -25.8575 H   0  0  0  0  0  0  0  0  0  0  0  0
  -25.5839   -6.2843  -23.3744 H   0  0  0  0  0  0  0  0  0  0  0  0
  -26.8221   -5.0718  -23.1717 H   0  0  0  0  0  0  0  0  0  0  0  0
  -19.6488   -4.9481  -24.3864 H   0  0  0  0  0  0  0  0  0  0  0  0
  -19.5008   -3.3842  -25.2005 H   0  0  0  0  0  0  0  0  0  0  0  0
  -26.1756   -4.0167  -25.3887 H   0  0  0  0  0  0  0  0  0  0  0  0
  -21.6294   -3.7160  -33.6328 H   0  0  0  0  0  0  0  0  0  0  0  0
  -24.1493   -6.1704  -25.6296 H   0  0  0  0  0  0  0  0  0  0  0  0
  -28.2929   -4.5358  -25.5214 H   0  0  0  0  0  0  0  0  0  0  0  0
  -19.9533   -5.8491  -26.6867 H   0  0  0  0  0  0  0  0  0  0  0  0
  1  3  2  0  0  0  0
  1  4  1  0  0  0  0
  2  5  2  0  0  0  0
  2  6  1  0  0  0  0
  3  7  1  0  0  0  0
  4  8  2  0  0  0  0
  5 11  1  0  0  0  0
  6 12  2  0  0  0  0
  7 20  2  0  0  0  0
  8 20  1  0  0  0  0
  9 13  1  0  0  0  0
  9 21  2  0  0  0  0
 10 14  2  0  0  0  0
 10 21  1  0  0  0  0
 11 23  2  0  0  0  0
 12 23  1  0  0  0  0
 13 22  2  0  0  0  0
 14 22  1  0  0  0  0
 15 16  1  0  0  0  0
 15 24  2  0  0  0  0
 16 25  2  0  0  0  0
 17 19  2  0  0  0  0
 17 24  1  0  0  0  0
 18 19  1  0  0  0  0
 18 26  2  0  0  0  0
 19 25  1  0  0  0  0
 20 21  1  0  0  0  0
 22 40  1  0  0  0  0
 23 41  1  0  0  0  0
 24 38  1  0  0  0  0
 25 43  1  0  0  0  0
 26 27  1  0  0  0  0
 26 43  1  0  0  0  0
 27 44  1  0  0  0  0
 27 48  2  0  0  0  0
 28 37  1  0  0  0  0
 28 45  1  0  0  0  0
 28 49  2  0  0  0  0
 29 42  1  0  0  0  0
 29 46  1  0  0  0  0
 29 50  2  0  0  0  0
 30 31  1  0  0  0  0
 30 32  1  0  0  0  0
 31 37  1  0  0  0  0
 32 44  1  0  0  0  0
 33 36  1  0  0  0  0
 33 44  1  0  0  0  0
 34 36  1  0  0  0  0
 34 47  1  0  0  0  0
 35 37  1  0  0  0  0
 35 47  1  0  0  0  0
 36 37  1  0  0  0  0
 39 46  1  0  0  0  0
 40 42  1  0  0  0  0
 41 47  1  0  0  0  0
 42 45  1  0  0  0  0
  1 51  1  0  0  0  0
  2 52  1  0  0  0  0
  3 53  1  0  0  0  0
  4 54  1  0  0  0  0
  5 55  1  0  0  0  0
  6 56  1  0  0  0  0
  7 57  1  0  0  0  0
  8 58  1  0  0  0  0
  9 59  1  0  0  0  0
 10 60  1  0  0  0  0
 11 61  1  0  0  0  0
 12 62  1  0  0  0  0
 13 63  1  0  0  0  0
 14 64  1  0  0  0  0
 15 65  1  0  0  0  0
 16 66  1  0  0  0  0
 17 67  1  0  0  0  0
 18 68  1  0  0  0  0
 30 69  1  0  0  0  0
 30 70  1  0  0  0  0
 31 71  1  0  0  0  0
 31 72  1  0  0  0  0
 32 73  1  0  0  0  0
 32 74  1  0  0  0  0
 33 75  1  0  0  0  0
 33 76  1  0  0  0  0
 34 77  1  0  0  0  0
 34 78  1  0  0  0  0
 35 79  1  0  0  0  0
 35 80  1  0  0  0  0
 36 81  1  0  0  0  0
 38 82  1  0  0  0  0
 38 83  1  0  0  0  0
 38 84  1  0  0  0  0
 39 85  1  0  0  0  0
 39 86  1  0  0  0  0
 39 87  1  0  0  0  0
 40 88  1  0  0  0  0
 40 89  1  0  0  0  0
 41 90  1  0  0  0  0
 41 91  1  0  0  0  0
 42 92  1  0  0  0  0
 43 93  1  0  0  0  0
 45 94  1  0  0  0  0
 46 95  1  0  0  0  0
 47 96  1  0  0  0  0
M  CHG  1  47   1
M  END
> <SMILES>
CNC(=O)[C@@H](Cc1ccc(cc1)-c1ccccc1)NC(=O)[C@]12CCCN(C[C@@H]2CN(Cc2ccccc2)C1)C(=O)c1cc2cc(ccc2[nH]1)C

> <FORMATTED_ID>
H3D-015066

> <MOLFORMULA>
C42H45N5O3

> <Exact Mass>
667.35

> <XLogP>
6.92

> <TPSA_NOPS>
97.5

> <s_m_source_file>
ligprep_h3d.sdf

> <i_m_source_file_index>
1638

> <i_lp_mmshare_version>
55123

> <i_f3d_flags>
0

> <s_epik_input>
W2NIXTFbY0hdW2NIXVtjSF1bY0hdYzEtYyhbY0hdW2NIXTIpW2NIXVtjSF1jMltDSDJdW0NASF0oQyg9TylbTkhdW0NIM10pW05IXUMoPU8pW0NAXTM0W0NAQEhdKFtDSDJdTihbQ0gyXTQpW0NIMl1jNVtjSF1bY0hdW2NIXVtjSF1bY0hdNSlbQ0gyXU4oW0NIMl1bQ0gyXVtDSDJdMylDKD1PKWMoW2NIXTYpW25IXWMoYzY3KVtjSF1bY0hdYyhbY0hdNylbQ0gzXQ==

> <s_epik_cmdline>
J2VwaWtfcHl0aG9uJywgJy1waHQnLCAnMC41JywgJy1waCcsICc3LjUnLCAnLXRuJywgJzgnLCAnLW1hJywgJzUwMCcsICctaW1hZScsICc8aW5maWxlLm1hZT4nLCAnLW9tYWUnLCAnPG91dGZpbGUubWFlPic=

> <r_epik_Ionization_Penalty>
0.0136519

> <r_epik_Ionization_Penalty_Charging>
0.0136489

> <r_epik_Ionization_Penalty_Neutral>
3.00955e-06

> <r_epik_State_Penalty>
0.0106339

> <r_epik_Charging_Adjusted_Penalty>
0.0242827

> <i_epik_Tot_Q>
1

> <i_epik_Tot_abs_Q>
1

> <s_lp_Force_Field>
S-OPLS

> <r_lp_Energy>
62.6571

> <b_lp_Chiralities_Consistent>
1

> <s_lp_Variant>
ligprep_h3d.sdf:1638-1

> <ROCS_ShapeQuery>
_7L13

> <ROCS_TanimotoCombo>
0.541 

> <ROCS_ShapeTanimoto>
0.496 

> <ROCS_ColorTanimoto>
0.044 

> <ROCS_RefTversky>
0.774 

> <ROCS_RefColorTversky>
0.110 

> <ROCS_RefTverskyCombo>
0.884 

> <ROCS_FitTversky>
0.580 

> <ROCS_FitColorTversky>
0.069 

> <ROCS_FitTverskyCombo>
0.649 

> <ROCS_ColorScore>
-1.019

> <ROCS_Overlap>
1310.275

> <ROCS_Rank>
440                 

$$$$
ligprep_h3d.sdf:4365_1856
  -OEChem-08212117123D

 59 64  0     0  0  0  0  0  0999 V2000
  -20.2796   -6.0911  -36.2696 C   0  0  0  0  0  0  0  0  0  0  0  0
  -19.6960   -6.8922  -37.2510 C   0  0  0  0  0  0  0  0  0  0  0  0
  -20.4722   -4.4196  -25.5051 C   0  0  0  0  0  0  0  0  0  0  0  0
  -19.9117   -7.8289  -34.6321 C   0  0  0  0  0  0  0  0  0  0  0  0
  -22.4369   -3.5378  -26.5759 C   0  0  0  0  0  0  0  0  0  0  0  0
  -21.4163   -4.5625  -30.5845 C   0  0  0  0  0  0  0  0  0  0  0  0
  -19.8723   -4.4524  -26.7536 C   0  0  0  0  0  0  0  0  0  0  0  0
  -23.0801   -3.3179  -32.4906 C   0  0  0  0  0  0  0  0  0  0  0  0
  -20.3874   -6.5594  -34.9601 C   0  0  0  0  0  0  0  0  0  0  0  0
  -21.7791   -3.9522  -25.4231 C   0  0  0  0  0  0  0  0  0  0  0  0
  -22.1812   -4.3068  -32.8913 C   0  0  0  0  0  0  0  0  0  0  0  0
  -21.3727   -4.9037  -31.9293 C   0  0  0  0  0  0  0  0  0  0  0  0
  -19.2202   -8.1617  -36.9230 C   0  0  0  0  0  0  0  0  0  0  0  0
  -19.3281   -8.6301  -35.6135 C   0  0  0  0  0  0  0  0  0  0  0  0
  -21.7490   -3.6099  -27.7765 C   0  0  0  0  0  0  0  0  0  0  0  0
  -22.3410   -3.5712  -30.2888 C   0  0  0  0  0  0  0  0  0  0  0  0
  -20.9912   -5.7312  -33.9445 C   0  0  0  0  0  0  0  0  0  0  0  0
  -22.4565   -3.8978  -24.1330 C   0  0  0  0  0  0  0  0  0  0  0  0
  -28.0495   -5.4813  -21.4668 C   0  0  0  0  0  0  0  0  0  0  0  0
  -28.8397   -5.5783  -22.7411 C   0  0  0  0  0  0  0  0  0  0  0  0
  -24.6277   -4.8420  -25.1009 C   0  0  0  0  0  0  0  0  0  0  0  0
  -24.6647   -3.3357  -23.1553 C   0  0  0  0  0  0  0  0  0  0  0  0
  -25.5341   -5.8315  -24.3835 C   0  0  0  0  0  0  0  0  0  0  0  0
  -25.5799   -4.2936  -22.4049 C   0  0  0  0  0  0  0  0  0  0  0  0
  -27.3929   -5.9818  -22.7216 C   0  0  0  0  0  0  0  0  0  0  0  0
  -20.4791   -4.0583  -27.8955 N   0  0  0  0  0  0  0  0  0  0  0  0
  -23.1522   -2.9570  -31.1853 N   0  0  0  0  0  0  0  0  0  0  0  0
  -21.9311   -4.8327  -34.1370 N   0  0  0  0  0  0  0  0  0  0  0  0
  -20.6214   -5.8111  -32.6305 N   0  0  0  0  0  0  0  0  0  0  0  0
  -23.8505   -4.0573  -24.1330 N   0  0  0  0  0  0  0  0  0  0  0  0
  -22.4321   -3.1836  -28.9425 N   0  0  0  0  0  0  0  0  0  0  0  0
  -26.4058   -5.0761  -23.4027 N   0  3  0  0  0  0  0  0  0  0  0  0
  -21.7914   -3.7222  -23.1126 O   0  0  0  0  0  0  0  0  0  0  0  0
  -18.6612   -8.9311  -37.8664 F   0  0  0  0  0  0  0  0  0  0  0  0
  -18.8716   -9.8494  -35.2987 F   0  0  0  0  0  0  0  0  0  0  0  0
  -20.6447   -5.1033  -36.5410 H   0  0  0  0  0  0  0  0  0  0  0  0
  -19.6111   -6.5272  -38.2702 H   0  0  0  0  0  0  0  0  0  0  0  0
  -19.9307   -4.7508  -24.6254 H   0  0  0  0  0  0  0  0  0  0  0  0
  -19.9887   -8.2090  -33.6162 H   0  0  0  0  0  0  0  0  0  0  0  0
  -23.4577   -3.1691  -26.5322 H   0  0  0  0  0  0  0  0  0  0  0  0
  -20.7818   -5.0325  -29.8437 H   0  0  0  0  0  0  0  0  0  0  0  0
  -18.8542   -4.8087  -26.8714 H   0  0  0  0  0  0  0  0  0  0  0  0
  -23.7434   -2.8024  -33.1738 H   0  0  0  0  0  0  0  0  0  0  0  0
  -27.7973   -4.4922  -21.1046 H   0  0  0  0  0  0  0  0  0  0  0  0
  -28.2615   -6.2024  -20.6868 H   0  0  0  0  0  0  0  0  0  0  0  0
  -29.5813   -6.3644  -22.8151 H   0  0  0  0  0  0  0  0  0  0  0  0
  -29.1172   -4.6541  -23.2331 H   0  0  0  0  0  0  0  0  0  0  0  0
  -23.9764   -5.3828  -25.7919 H   0  0  0  0  0  0  0  0  0  0  0  0
  -25.2177   -4.1364  -25.6982 H   0  0  0  0  0  0  0  0  0  0  0  0
  -25.2486   -2.5837  -23.6993 H   0  0  0  0  0  0  0  0  0  0  0  0
  -24.0265   -2.8021  -22.4437 H   0  0  0  0  0  0  0  0  0  0  0  0
  -26.2017   -6.3317  -25.0926 H   0  0  0  0  0  0  0  0  0  0  0  0
  -24.9639   -6.5793  -23.8211 H   0  0  0  0  0  0  0  0  0  0  0  0
  -25.0137   -5.0113  -21.8005 H   0  0  0  0  0  0  0  0  0  0  0  0
  -26.2778   -3.7428  -21.7660 H   0  0  0  0  0  0  0  0  0  0  0  0
  -27.1683   -7.0401  -22.7803 H   0  0  0  0  0  0  0  0  0  0  0  0
  -19.9194   -6.4268  -32.2412 H   0  0  0  0  0  0  0  0  0  0  0  0
  -23.1164   -2.4585  -28.7625 H   0  0  0  0  0  0  0  0  0  0  0  0
  -26.9703   -4.3965  -23.9440 H   0  0  0  0  0  0  0  0  0  0  0  0
  1  2  1  0  0  0  0
  1  9  2  0  0  0  0
  2 13  2  0  0  0  0
  3  7  1  0  0  0  0
  3 10  2  0  0  0  0
  4  9  1  0  0  0  0
  4 14  2  0  0  0  0
  5 10  1  0  0  0  0
  5 15  2  0  0  0  0
  6 12  2  0  0  0  0
  6 16  1  0  0  0  0
  7 26  2  0  0  0  0
  8 11  2  0  0  0  0
  8 27  1  0  0  0  0
  9 17  1  0  0  0  0
 10 18  1  0  0  0  0
 11 12  1  0  0  0  0
 11 28  1  0  0  0  0
 12 29  1  0  0  0  0
 13 14  1  0  0  0  0
 13 34  1  0  0  0  0
 14 35  1  0  0  0  0
 15 26  1  0  0  0  0
 15 31  1  0  0  0  0
 16 27  2  0  0  0  0
 16 31  1  0  0  0  0
 17 28  2  0  0  0  0
 17 29  1  0  0  0  0
 18 30  1  0  0  0  0
 18 33  2  0  0  0  0
 19 20  1  0  0  0  0
 19 25  1  0  0  0  0
 20 25  1  0  0  0  0
 21 23  1  0  0  0  0
 21 30  1  0  0  0  0
 22 24  1  0  0  0  0
 22 30  1  0  0  0  0
 23 32  1  0  0  0  0
 24 32  1  0  0  0  0
 25 32  1  0  0  0  0
  1 36  1  0  0  0  0
  2 37  1  0  0  0  0
  3 38  1  0  0  0  0
  4 39  1  0  0  0  0
  5 40  1  0  0  0  0
  6 41  1  0  0  0  0
  7 42  1  0  0  0  0
  8 43  1  0  0  0  0
 19 44  1  0  0  0  0
 19 45  1  0  0  0  0
 20 46  1  0  0  0  0
 20 47  1  0  0  0  0
 21 48  1  0  0  0  0
 21 49  1  0  0  0  0
 22 50  1  0  0  0  0
 22 51  1  0  0  0  0
 23 52  1  0  0  0  0
 23 53  1  0  0  0  0
 24 54  1  0  0  0  0
 24 55  1  0  0  0  0
 25 56  1  0  0  0  0
 29 57  1  0  0  0  0
 31 58  1  0  0  0  0
 32 59  1  0  0  0  0
M  CHG  1  32   1
M  END
> <SMILES>
Fc1ccc(cc1F)-c1nc2cnc(cc2[nH]1)Nc1cc(ccn1)C(=O)N1CCN(CC1)C1CC1

> <FORMATTED_ID>
H3D-003907

> <MOLFORMULA>
C25H23F2N7O

> <Exact Mass>
475.19

> <XLogP>
3.91

> <TPSA_NOPS>
90

> <s_m_source_file>
ligprep_h3d.sdf

> <i_m_source_file_index>
4365

> <i_lp_mmshare_version>
55123

> <i_f3d_flags>
0

> <s_epik_input>
RmMxW2NIXVtjSF1jKFtjSF1jMUYpLWMobjIpW25IXWMoYzIzKVtjSF1jKG5bY0hdMylbTkhdYzRbY0hdYyhbY0hdW2NIXW40KUMoPU8pTjVbQ0gyXVtDSDJdTihbQ0gyXVtDSDJdNSlbQ0hdNltDSDJdW0NIMl02

> <s_epik_cmdline>
J2VwaWtfcHl0aG9uJywgJy1waHQnLCAnMC41JywgJy1waCcsICc3LjUnLCAnLXRuJywgJzgnLCAnLW1hJywgJzUwMCcsICctaW1hZScsICc8aW5maWxlLm1hZT4nLCAnLW9tYWUnLCAnPG91dGZpbGUubWFlPic=

> <r_lp_tautomer_probability>
1

> <r_epik_Ionization_Penalty>
0.120337

> <r_epik_Ionization_Penalty_Charging>
0.119968

> <r_epik_Ionization_Penalty_Neutral>
0.000368617

> <r_epik_State_Penalty>
-0

> <r_epik_Charging_Adjusted_Penalty>
0.119968

> <i_epik_Tot_Q>
1

> <i_epik_Tot_abs_Q>
1

> <s_lp_Force_Field>
S-OPLS

> <r_lp_Energy>
56.6573

> <b_lp_Chiralities_Consistent>
1

> <s_lp_Variant>
ligprep_h3d.sdf:4365-1

> <ROCS_ShapeQuery>
_7L13

> <ROCS_TanimotoCombo>
0.799 

> <ROCS_ShapeTanimoto>
0.638 

> <ROCS_ColorTanimoto>
0.161 

> <ROCS_RefTversky>
0.774 

> <ROCS_RefColorTversky>
0.332 

> <ROCS_RefTverskyCombo>
1.106 

> <ROCS_FitTversky>
0.783 

> <ROCS_FitColorTversky>
0.238 

> <ROCS_FitTverskyCombo>
1.022 

> <ROCS_ColorScore>
-3.056

> <ROCS_Overlap>
1285.050

> <ROCS_Rank>
441                 

$$$$
ligprep_h3d.sdf:5256_565
  -OEChem-08212117123D

 54 58  0     0  0  0  0  0  0999 V2000
  -23.4792   -3.8630  -23.5926 C   0  0  0  0  0  0  0  0  0  0  0  0
  -24.4940   -5.4532  -25.0845 C   0  0  0  0  0  0  0  0  0  0  0  0
  -20.6851   -4.9298  -29.4870 C   0  0  0  0  0  0  0  0  0  0  0  0
  -22.7235   -3.2773  -28.4141 C   0  0  0  0  0  0  0  0  0  0  0  0
  -24.7011   -3.7713  -22.9458 C   0  0  0  0  0  0  0  0  0  0  0  0
  -25.6705   -5.2905  -24.3708 C   0  0  0  0  0  0  0  0  0  0  0  0
  -18.7194   -8.2286  -35.9417 C   0  0  0  0  0  0  0  0  0  0  0  0
  -18.2836   -6.1488  -36.9116 C   0  0  0  0  0  0  0  0  0  0  0  0
  -21.6040   -4.3086  -30.3161 C   0  0  0  0  0  0  0  0  0  0  0  0
  -23.3820   -4.7223  -24.6814 C   0  0  0  0  0  0  0  0  0  0  0  0
  -22.6006   -3.5014  -29.7714 C   0  0  0  0  0  0  0  0  0  0  0  0
  -20.7869   -4.7199  -28.1079 C   0  0  0  0  0  0  0  0  0  0  0  0
  -21.7978   -3.8999  -27.5762 C   0  0  0  0  0  0  0  0  0  0  0  0
  -18.1254   -7.5186  -36.9651 C   0  0  0  0  0  0  0  0  0  0  0  0
  -19.4993   -6.3134  -34.9979 C   0  0  0  0  0  0  0  0  0  0  0  0
  -22.9844   -3.4334  -32.0393 C   0  0  0  0  0  0  0  0  0  0  0  0
  -22.0598   -5.7632  -32.3420 C   0  0  0  0  0  0  0  0  0  0  0  0
  -20.5231   -3.7247  -32.5158 C   0  0  0  0  0  0  0  0  0  0  0  0
  -20.8292   -6.4757  -32.9064 C   0  0  0  0  0  0  0  0  0  0  0  0
  -20.3461   -4.2289  -33.9492 C   0  0  0  0  0  0  0  0  0  0  0  0
  -21.7451   -4.3502  -31.8230 C   0  0  0  0  0  0  0  0  0  0  0  0
  -18.6962   -4.6016  -26.9807 C   0  0  0  0  0  0  0  0  0  0  0  0
  -22.0826   -4.8596  -25.4189 C   0  0  0  0  0  0  0  0  0  0  0  0
  -25.8032   -4.4654  -23.3082 N   0  0  0  0  0  0  0  0  0  0  0  0
  -19.4163   -7.6561  -34.9383 N   0  0  0  0  0  0  0  0  0  0  0  0
  -18.9670   -5.5105  -35.9390 N   0  0  0  0  0  0  0  0  0  0  0  0
  -23.4049   -2.9925  -30.7819 N   0  0  0  0  0  0  0  0  0  0  0  0
  -20.2126   -5.6875  -33.9763 N   0  0  0  0  0  0  0  0  0  0  0  0
  -23.4875   -3.1518  -33.1173 O   0  0  0  0  0  0  0  0  0  0  0  0
  -19.8886   -5.3238  -27.2775 O   0  0  0  0  0  0  0  0  0  0  0  0
  -21.8829   -3.7039  -26.2291 O   0  0  0  0  0  0  0  0  0  0  0  0
  -17.4419   -8.1181  -37.9437 F   0  0  0  0  0  0  0  0  0  0  0  0
  -22.6306   -3.2783  -23.2538 H   0  0  0  0  0  0  0  0  0  0  0  0
  -24.4495   -6.1316  -25.9295 H   0  0  0  0  0  0  0  0  0  0  0  0
  -19.9055   -5.5656  -29.8929 H   0  0  0  0  0  0  0  0  0  0  0  0
  -23.5065   -2.6428  -28.0136 H   0  0  0  0  0  0  0  0  0  0  0  0
  -24.8295   -3.1143  -22.0917 H   0  0  0  0  0  0  0  0  0  0  0  0
  -26.5661   -5.8380  -24.6451 H   0  0  0  0  0  0  0  0  0  0  0  0
  -18.6489   -9.3102  -35.8995 H   0  0  0  0  0  0  0  0  0  0  0  0
  -17.8522   -5.5076  -37.6727 H   0  0  0  0  0  0  0  0  0  0  0  0
  -22.8376   -5.7277  -33.1191 H   0  0  0  0  0  0  0  0  0  0  0  0
  -22.4752   -6.3917  -31.5399 H   0  0  0  0  0  0  0  0  0  0  0  0
  -19.6041   -3.9184  -31.9513 H   0  0  0  0  0  0  0  0  0  0  0  0
  -20.6214   -2.6332  -32.5543 H   0  0  0  0  0  0  0  0  0  0  0  0
  -20.1171   -6.6554  -32.0905 H   0  0  0  0  0  0  0  0  0  0  0  0
  -21.1074   -7.4580  -33.3062 H   0  0  0  0  0  0  0  0  0  0  0  0
  -21.2170   -3.9258  -34.5426 H   0  0  0  0  0  0  0  0  0  0  0  0
  -19.4622   -3.7670  -34.4044 H   0  0  0  0  0  0  0  0  0  0  0  0
  -18.0681   -5.1934  -26.3104 H   0  0  0  0  0  0  0  0  0  0  0  0
  -18.9534   -3.6493  -26.5102 H   0  0  0  0  0  0  0  0  0  0  0  0
  -18.1549   -4.4118  -27.9106 H   0  0  0  0  0  0  0  0  0  0  0  0
  -21.2440   -4.9555  -24.7207 H   0  0  0  0  0  0  0  0  0  0  0  0
  -22.0916   -5.7491  -26.0580 H   0  0  0  0  0  0  0  0  0  0  0  0
  -24.1956   -2.3810  -30.6161 H   0  0  0  0  0  0  0  0  0  0  0  0
  1  5  1  0  0  0  0
  1 10  2  0  0  0  0
  2  6  2  0  0  0  0
  2 10  1  0  0  0  0
  3  9  1  0  0  0  0
  3 12  2  0  0  0  0
  4 11  1  0  0  0  0
  4 13  2  0  0  0  0
  5 24  2  0  0  0  0
  6 24  1  0  0  0  0
  7 14  2  0  0  0  0
  7 25  1  0  0  0  0
  8 14  1  0  0  0  0
  8 26  2  0  0  0  0
  9 11  2  0  0  0  0
  9 21  1  0  0  0  0
 10 23  1  0  0  0  0
 11 27  1  0  0  0  0
 12 13  1  0  0  0  0
 12 30  1  0  0  0  0
 13 31  1  0  0  0  0
 14 32  1  0  0  0  0
 15 25  2  0  0  0  0
 15 26  1  0  0  0  0
 15 28  1  0  0  0  0
 16 21  1  0  0  0  0
 16 27  1  0  0  0  0
 16 29  2  0  0  0  0
 17 19  1  0  0  0  0
 17 21  1  0  0  0  0
 18 20  1  0  0  0  0
 18 21  1  0  0  0  0
 19 28  1  0  0  0  0
 20 28  1  0  0  0  0
 22 30  1  0  0  0  0
 23 31  1  0  0  0  0
  1 33  1  0  0  0  0
  2 34  1  0  0  0  0
  3 35  1  0  0  0  0
  4 36  1  0  0  0  0
  5 37  1  0  0  0  0
  6 38  1  0  0  0  0
  7 39  1  0  0  0  0
  8 40  1  0  0  0  0
 17 41  1  0  0  0  0
 17 42  1  0  0  0  0
 18 43  1  0  0  0  0
 18 44  1  0  0  0  0
 19 45  1  0  0  0  0
 19 46  1  0  0  0  0
 20 47  1  0  0  0  0
 20 48  1  0  0  0  0
 22 49  1  0  0  0  0
 22 50  1  0  0  0  0
 22 51  1  0  0  0  0
 23 52  1  0  0  0  0
 23 53  1  0  0  0  0
 27 54  1  0  0  0  0
M  END
> <SMILES>
COc1cc2c(cc1OCc1ccncc1)NC(=O)C12CCN(CC1)c1ncc(cn1)F

> <FORMATTED_ID>
H3D-014073

> <MOLFORMULA>
C23H22FN5O3

> <Exact Mass>
435.17

> <XLogP>
2.63

> <TPSA_NOPS>
89.5

> <s_m_source_file>
ligprep_h3d.sdf

> <i_m_source_file_index>
5256

> <i_lp_mmshare_version>
55123

> <i_f3d_flags>
0

> <s_epik_input>
W2NIXTFbY0hdbltjSF1bY0hdYzFbQ0gyXU9jKGMoW2NIXTIpT1tDSDNdKVtjSF1jKFtOSF1DMz1PKWMyQzM0W0NIMl1bQ0gyXU4oW0NIMl1bQ0gyXTQpYzVuW2NIXWMoRilbY0hdbjU=

> <s_epik_cmdline>
J2VwaWtfcHl0aG9uJywgJy1waHQnLCAnMC41JywgJy1waCcsICc3LjUnLCAnLXRuJywgJzgnLCAnLW1hJywgJzUwMCcsICctaW1hZScsICc8aW5maWxlLm1hZT4nLCAnLW9tYWUnLCAnPG91dGZpbGUubWFlPic=

> <r_lp_tautomer_probability>
1

> <r_epik_Ionization_Penalty>
0.00134497

> <r_epik_Ionization_Penalty_Charging>
0

> <r_epik_Ionization_Penalty_Neutral>
0.00134497

> <r_epik_State_Penalty>
-0

> <r_epik_Charging_Adjusted_Penalty>
0

> <i_epik_Tot_Q>
0

> <i_epik_Tot_abs_Q>
0

> <s_lp_Force_Field>
S-OPLS

> <r_lp_Energy>
71.3664

> <b_lp_Chiralities_Consistent>
1

> <s_lp_Variant>
ligprep_h3d.sdf:5256-1

> <ROCS_ShapeQuery>
_7L13

> <ROCS_TanimotoCombo>
0.796 

> <ROCS_ShapeTanimoto>
0.682 

> <ROCS_ColorTanimoto>
0.114 

> <ROCS_RefTversky>
0.774 

> <ROCS_RefColorTversky>
0.236 

> <ROCS_RefTverskyCombo>
1.010 

> <ROCS_FitTversky>
0.851 

> <ROCS_FitColorTversky>
0.182 

> <ROCS_FitTverskyCombo>
1.033 

> <ROCS_ColorScore>
-2.159

> <ROCS_Overlap>
1279.351

> <ROCS_Rank>
442                 

$$$$
ligprep_h3d.sdf:1111_55
  -OEChem-08212117123D

 60 65  0     1  0  0  0  0  0999 V2000
  -20.9852   -5.1483  -29.5050 C   0  0  0  0  0  0  0  0  0  0  0  0
  -21.7512   -4.3817  -30.3857 C   0  0  0  0  0  0  0  0  0  0  0  0
  -21.0985   -4.9043  -28.1151 C   0  0  0  0  0  0  0  0  0  0  0  0
  -21.9873   -3.9411  -27.5818 C   0  0  0  0  0  0  0  0  0  0  0  0
  -22.5898   -3.4224  -29.8620 C   0  0  0  0  0  0  0  0  0  0  0  0
  -22.7374   -3.1672  -28.4984 C   0  0  0  0  0  0  0  0  0  0  0  0
  -21.9443   -4.2733  -31.7755 C   0  0  0  0  0  0  0  0  0  0  0  0
  -18.9031   -3.8172  -26.2407 C   0  0  0  0  0  0  0  0  0  0  0  0
  -19.2348   -6.0263  -25.0114 C   0  0  0  0  0  0  0  0  0  0  0  0
  -17.0560   -5.1598  -25.8325 C   0  0  0  0  0  0  0  0  0  0  0  0
  -20.2478   -5.7334  -27.1907 C   0  0  0  0  0  0  0  0  0  0  0  0
  -19.6459   -5.2413  -34.5390 C   0  0  0  0  0  0  0  0  0  0  0  0
  -21.1044   -7.1862  -33.9642 C   0  0  0  0  0  0  0  0  0  0  0  0
  -19.9679   -4.6033  -33.1908 C   0  0  0  0  0  0  0  0  0  0  0  0
  -21.4305   -6.5450  -32.6176 C   0  0  0  0  0  0  0  0  0  0  0  0
  -23.0575   -2.8017  -25.6480 C   0  0  0  0  0  0  0  0  0  0  0  0
  -21.2035   -4.4634  -25.2371 C   0  0  2  0  0  0  0  0  0  0  0  0
  -19.7301   -6.7630  -34.4706 C   0  0  0  0  0  0  0  0  0  0  0  0
  -23.4262   -3.1192  -24.1959 C   0  0  1  0  0  0  0  0  0  0  0  0
  -21.0482   -3.5262  -24.0034 C   0  0  2  0  0  0  0  0  0  0  0  0
  -19.8778   -4.9677  -25.8964 C   0  0  2  0  0  0  0  0  0  0  0  0
  -24.4068   -4.2848  -24.0803 C   0  0  0  0  0  0  0  0  0  0  0  0
  -20.0866   -3.9920  -22.9175 C   0  0  0  0  0  0  0  0  0  0  0  0
  -22.8287   -3.3226  -32.0917 N   0  0  0  0  0  0  0  0  0  0  0  0
  -17.6402   -4.1626  -26.4980 N   0  5  0  0  0  0  0  0  0  0  0  0
  -17.8553   -6.0087  -25.0691 N   0  0  0  0  0  0  0  0  0  0  0  0
  -22.0963   -3.7645  -26.2002 N   0  0  3  0  0  0  0  0  0  0  0  0
  -21.2607   -5.0887  -32.6858 N   0  0  0  0  0  0  0  0  0  0  0  0
  -19.3153   -2.6657  -26.3790 O   0  0  0  0  0  0  0  0  0  0  0  0
  -19.8672   -6.8635  -24.3714 O   0  0  0  0  0  0  0  0  0  0  0  0
  -15.8418   -5.3748  -25.8785 O   0  0  0  0  0  0  0  0  0  0  0  0
  -23.2346   -2.7836  -30.8764 O   0  0  0  0  0  0  0  0  0  0  0  0
  -22.3132   -3.3781  -23.3451 O   0  0  0  0  0  0  0  0  0  0  0  0
  -19.5283   -7.3156  -35.7658 O   0  0  0  0  0  0  0  0  0  0  0  0
  -23.5056   -2.1342  -28.1323 F   0  0  0  0  0  0  0  0  0  0  0  0
  -20.3078   -5.9107  -29.8792 H   0  0  0  0  0  0  0  0  0  0  0  0
  -20.8077   -6.6488  -26.9550 H   0  0  0  0  0  0  0  0  0  0  0  0
  -19.3366   -6.0529  -27.7134 H   0  0  0  0  0  0  0  0  0  0  0  0
  -20.3316   -4.8614  -35.3080 H   0  0  0  0  0  0  0  0  0  0  0  0
  -18.6427   -4.9407  -34.8648 H   0  0  0  0  0  0  0  0  0  0  0  0
  -21.1465   -8.2785  -33.8756 H   0  0  0  0  0  0  0  0  0  0  0  0
  -21.8732   -6.9208  -34.7020 H   0  0  0  0  0  0  0  0  0  0  0  0
  -19.1814   -4.8406  -32.4631 H   0  0  0  0  0  0  0  0  0  0  0  0
  -19.9858   -3.5125  -33.3098 H   0  0  0  0  0  0  0  0  0  0  0  0
  -22.4618   -6.8014  -32.3436 H   0  0  0  0  0  0  0  0  0  0  0  0
  -20.7737   -6.9513  -31.8378 H   0  0  0  0  0  0  0  0  0  0  0  0
  -23.9686   -2.8470  -26.2795 H   0  0  0  0  0  0  0  0  0  0  0  0
  -22.7481   -1.7457  -25.6896 H   0  0  0  0  0  0  0  0  0  0  0  0
  -21.7761   -5.3441  -24.9043 H   0  0  0  0  0  0  0  0  0  0  0  0
  -18.9482   -7.1551  -33.8094 H   0  0  0  0  0  0  0  0  0  0  0  0
  -23.9763   -2.2150  -23.7590 H   0  0  0  0  0  0  0  0  0  0  0  0
  -20.7199   -2.5175  -24.3127 H   0  0  0  0  0  0  0  0  0  0  0  0
  -23.9549   -5.1933  -24.4787 H   0  0  0  0  0  0  0  0  0  0  0  0
  -25.3146   -4.0656  -24.6425 H   0  0  0  0  0  0  0  0  0  0  0  0
  -24.6691   -4.4493  -23.0350 H   0  0  0  0  0  0  0  0  0  0  0  0
  -20.3660   -4.9881  -22.5742 H   0  0  0  0  0  0  0  0  0  0  0  0
  -20.1179   -3.3048  -22.0719 H   0  0  0  0  0  0  0  0  0  0  0  0
  -19.0698   -4.0251  -23.3091 H   0  0  0  0  0  0  0  0  0  0  0  0
  -17.3700   -6.6889  -24.4919 H   0  0  0  0  0  0  0  0  0  0  0  0
  -18.6457   -7.0338  -36.0549 H   0  0  0  0  0  0  0  0  0  0  0  0
  1  2  2  0  0  0  0
  1  3  1  0  0  0  0
  2  5  1  0  0  0  0
  2  7  1  0  0  0  0
  3  4  2  0  0  0  0
  3 11  1  0  0  0  0
  4  6  1  0  0  0  0
  4 27  1  0  0  0  0
  5  6  2  0  0  0  0
  5 32  1  0  0  0  0
  6 35  1  0  0  0  0
  7 24  2  0  0  0  0
  7 28  1  0  0  0  0
  8 21  1  0  0  0  0
  8 25  1  0  0  0  0
  8 29  2  0  0  0  0
  9 21  1  0  0  0  0
  9 26  1  0  0  0  0
  9 30  2  0  0  0  0
 10 25  1  0  0  0  0
 10 26  1  0  0  0  0
 10 31  2  0  0  0  0
 11 21  1  0  0  0  0
 12 14  1  0  0  0  0
 12 18  1  0  0  0  0
 13 15  1  0  0  0  0
 13 18  1  0  0  0  0
 14 28  1  0  0  0  0
 15 28  1  0  0  0  0
 16 19  1  0  0  0  0
 16 27  1  0  0  0  0
 17 20  1  0  0  0  0
 17 21  1  0  0  0  0
 17 27  1  0  0  0  0
 18 34  1  0  0  0  0
 19 22  1  0  0  0  0
 19 33  1  0  0  0  0
 20 23  1  0  0  0  0
 20 33  1  0  0  0  0
 24 32  1  0  0  0  0
  1 36  1  0  0  0  0
 11 37  1  0  0  0  0
 11 38  1  0  0  0  0
 12 39  1  0  0  0  0
 12 40  1  0  0  0  0
 13 41  1  0  0  0  0
 13 42  1  0  0  0  0
 14 43  1  0  0  0  0
 14 44  1  0  0  0  0
 15 45  1  0  0  0  0
 15 46  1  0  0  0  0
 16 47  1  0  0  0  0
 16 48  1  0  0  0  0
 17 49  1  0  0  0  0
 18 50  1  0  0  0  0
 19 51  1  0  0  0  0
 20 52  1  0  0  0  0
 22 53  1  0  0  0  0
 22 54  1  0  0  0  0
 22 55  1  0  0  0  0
 23 56  1  0  0  0  0
 23 57  1  0  0  0  0
 23 58  1  0  0  0  0
 26 59  1  0  0  0  0
 34 60  1  0  0  0  0
M  CHG  1  25  -1
M  END
> <SMILES>
CC1CN2C(C(C)O1)C1(Cc3cc4c(noc4c(c32)F)N2CCC(O)CC2)C(=O)NC(=O)NC1=O

> <FORMATTED_ID>
H3D-006964

> <MOLFORMULA>
C23H26FN5O6

> <Exact Mass>
487.19

> <XLogP>
0.29

> <TPSA_NOPS>
137.5

> <s_m_source_file>
ligprep_h3d.sdf

> <i_m_source_file_index>
1111

> <i_lp_mmshare_version>
55123

> <i_f3d_flags>
0

> <s_epik_input>
Tz1DMVtOSF1DKD1PKVtOSF1DKD1PKUMxMltDQEBIXTNOKFtDSDJdW0NAQEhdKFtDSDNdKU9bQ0BIXTNbQ0gzXSljNGMoW0NIMl0yKVtjSF1jNWMoYzRGKW9uYzVONltDSDJdW0NIMl1bQ0hdKFtPSF0pW0NIMl1bQ0gyXTY=

> <s_epik_cmdline>
J2VwaWtfcHl0aG9uJywgJy1waHQnLCAnMC41JywgJy1waCcsICc3LjUnLCAnLXRuJywgJzgnLCAnLW1hJywgJzUwMCcsICctaW1hZScsICc8aW5maWxlLm1hZT4nLCAnLW9tYWUnLCAnPG91dGZpbGUubWFlPic=

> <r_lp_tautomer_probability>
1

> <r_epik_Ionization_Penalty>
0.45539

> <r_epik_Ionization_Penalty_Charging>
0.455373

> <r_epik_Ionization_Penalty_Neutral>
1.62498e-05

> <r_epik_State_Penalty>
0.458483

> <r_epik_Charging_Adjusted_Penalty>
0.913857

> <i_epik_Tot_Q>
-1

> <i_epik_Tot_abs_Q>
1

> <s_lp_Force_Field>
S-OPLS

> <r_lp_Energy>
51.6487

> <b_lp_Chiralities_Consistent>
1

> <s_lp_Variant>
ligprep_h3d.sdf:1111-2

> <ROCS_ShapeQuery>
_7L13

> <ROCS_TanimotoCombo>
0.758 

> <ROCS_ShapeTanimoto>
0.633 

> <ROCS_ColorTanimoto>
0.125 

> <ROCS_RefTversky>
0.774 

> <ROCS_RefColorTversky>
0.296 

> <ROCS_RefTverskyCombo>
1.071 

> <ROCS_FitTversky>
0.777 

> <ROCS_FitColorTversky>
0.177 

> <ROCS_FitTverskyCombo>
0.954 

> <ROCS_ColorScore>
-2.773

> <ROCS_Overlap>
1285.501

> <ROCS_Rank>
443                 

$$$$
ligprep_h3d.sdf:1237_39
  -OEChem-08212117123D

 58 64  0     1  0  0  0  0  0999 V2000
  -20.9030   -5.1077  -29.4974 C   0  0  0  0  0  0  0  0  0  0  0  0
  -21.6986   -4.3840  -30.3877 C   0  0  0  0  0  0  0  0  0  0  0  0
  -21.0374   -4.8631  -28.1089 C   0  0  0  0  0  0  0  0  0  0  0  0
  -21.9762   -3.9426  -27.5866 C   0  0  0  0  0  0  0  0  0  0  0  0
  -22.5861   -3.4640  -29.8747 C   0  0  0  0  0  0  0  0  0  0  0  0
  -22.7552   -3.2099  -28.5133 C   0  0  0  0  0  0  0  0  0  0  0  0
  -21.8868   -4.2918  -31.7793 C   0  0  0  0  0  0  0  0  0  0  0  0
  -18.9296   -3.7096  -26.1816 C   0  0  0  0  0  0  0  0  0  0  0  0
  -19.1975   -5.9802  -24.9904 C   0  0  0  0  0  0  0  0  0  0  0  0
  -16.9617   -5.1396  -25.6779 C   0  0  0  0  0  0  0  0  0  0  0  0
  -19.9990   -4.6368  -33.3094 C   0  0  0  0  0  0  0  0  0  0  0  0
  -20.1492   -5.6465  -27.1797 C   0  0  0  0  0  0  0  0  0  0  0  0
  -20.8488   -7.3954  -35.4661 C   0  0  0  0  0  0  0  0  0  0  0  0
  -20.0838   -8.0800  -34.3678 C   0  0  0  0  0  0  0  0  0  0  0  0
  -23.0987   -2.8265  -25.6690 C   0  0  0  0  0  0  0  0  0  0  0  0
  -21.6435   -6.3245  -33.2158 C   0  0  0  0  0  0  0  0  0  0  0  0
  -21.2067   -4.4359  -25.2310 C   0  0  2  0  0  0  0  0  0  0  0  0
  -23.4710   -3.1437  -24.2179 C   0  0  1  0  0  0  0  0  0  0  0  0
  -21.0858   -3.4891  -24.0015 C   0  0  2  0  0  0  0  0  0  0  0  0
  -19.8550   -4.8941  -25.8579 C   0  0  0  0  0  0  0  0  0  0  0  0
  -20.5717   -6.6731  -34.1799 C   0  0  0  0  0  0  0  0  0  0  0  0
  -24.4177   -4.3368  -24.1008 C   0  0  0  0  0  0  0  0  0  0  0  0
  -20.1247   -3.9319  -22.9047 C   0  0  0  0  0  0  0  0  0  0  0  0
  -22.8145   -3.3870  -32.1064 N   0  0  0  0  0  0  0  0  0  0  0  0
  -17.5754   -4.0043  -26.1874 N   0  0  0  0  0  0  0  0  0  0  0  0
  -17.8162   -6.0541  -25.0787 N   0  0  0  0  0  0  0  0  0  0  0  0
  -22.1049   -3.7644  -26.2070 N   0  0  3  0  0  0  0  0  0  0  0  0
  -21.2019   -5.0354  -32.7200 N   0  0  0  0  0  0  0  0  0  0  0  0
  -19.3453   -2.5899  -26.4796 O   0  0  0  0  0  0  0  0  0  0  0  0
  -19.8472   -6.7914  -24.3293 O   0  0  0  0  0  0  0  0  0  0  0  0
  -15.7413   -5.3047  -25.7181 O   0  0  0  0  0  0  0  0  0  0  0  0
  -19.3636   -3.6101  -33.1122 O   0  0  0  0  0  0  0  0  0  0  0  0
  -23.2543   -2.8623  -30.8967 O   0  0  0  0  0  0  0  0  0  0  0  0
  -19.6068   -5.6142  -34.1917 O   0  0  0  0  0  0  0  0  0  0  0  0
  -22.3585   -3.3611  -23.3554 O   0  0  0  0  0  0  0  0  0  0  0  0
  -23.5747   -2.2120  -28.1616 F   0  0  0  0  0  0  0  0  0  0  0  0
  -20.1874   -5.8381  -29.8642 H   0  0  0  0  0  0  0  0  0  0  0  0
  -20.6467   -6.6056  -26.9798 H   0  0  0  0  0  0  0  0  0  0  0  0
  -19.2049   -5.8825  -27.6892 H   0  0  0  0  0  0  0  0  0  0  0  0
  -20.3002   -7.0947  -36.3503 H   0  0  0  0  0  0  0  0  0  0  0  0
  -21.8583   -7.7367  -35.6603 H   0  0  0  0  0  0  0  0  0  0  0  0
  -20.5840   -8.8769  -33.8313 H   0  0  0  0  0  0  0  0  0  0  0  0
  -19.0222   -8.2367  -34.5149 H   0  0  0  0  0  0  0  0  0  0  0  0
  -24.0026   -2.9034  -26.3083 H   0  0  0  0  0  0  0  0  0  0  0  0
  -22.8225   -1.7617  -25.7139 H   0  0  0  0  0  0  0  0  0  0  0  0
  -22.6214   -6.2076  -33.6930 H   0  0  0  0  0  0  0  0  0  0  0  0
  -21.7060   -7.0270  -32.3790 H   0  0  0  0  0  0  0  0  0  0  0  0
  -21.7578   -5.3311  -24.9034 H   0  0  0  0  0  0  0  0  0  0  0  0
  -24.0517   -2.2521  -23.7939 H   0  0  0  0  0  0  0  0  0  0  0  0
  -20.7718   -2.4769  -24.3163 H   0  0  0  0  0  0  0  0  0  0  0  0
  -23.9356   -5.2349  -24.4871 H   0  0  0  0  0  0  0  0  0  0  0  0
  -25.3264   -4.1494  -24.6730 H   0  0  0  0  0  0  0  0  0  0  0  0
  -24.6846   -4.5000  -23.0565 H   0  0  0  0  0  0  0  0  0  0  0  0
  -20.3908   -4.9299  -22.5564 H   0  0  0  0  0  0  0  0  0  0  0  0
  -20.1735   -3.2393  -22.0645 H   0  0  0  0  0  0  0  0  0  0  0  0
  -19.1046   -3.9514  -23.2886 H   0  0  0  0  0  0  0  0  0  0  0  0
  -16.9646   -3.3128  -26.6116 H   0  0  0  0  0  0  0  0  0  0  0  0
  -17.3755   -6.8388  -24.6072 H   0  0  0  0  0  0  0  0  0  0  0  0
  1  2  2  0  0  0  0
  1  3  1  0  0  0  0
  2  5  1  0  0  0  0
  2  7  1  0  0  0  0
  3  4  2  0  0  0  0
  3 12  1  0  0  0  0
  4  6  1  0  0  0  0
  4 27  1  0  0  0  0
  5  6  2  0  0  0  0
  5 33  1  0  0  0  0
  6 36  1  0  0  0  0
  7 24  2  0  0  0  0
  7 28  1  0  0  0  0
  8 20  1  0  0  0  0
  8 25  1  0  0  0  0
  8 29  2  0  0  0  0
  9 20  1  0  0  0  0
  9 26  1  0  0  0  0
  9 30  2  0  0  0  0
 10 25  1  0  0  0  0
 10 26  1  0  0  0  0
 10 31  2  0  0  0  0
 11 28  1  0  0  0  0
 11 32  2  0  0  0  0
 11 34  1  0  0  0  0
 12 20  1  0  0  0  0
 13 14  1  0  0  0  0
 13 21  1  0  0  0  0
 14 21  1  0  0  0  0
 15 18  1  0  0  0  0
 15 27  1  0  0  0  0
 16 21  1  0  0  0  0
 16 28  1  0  0  0  0
 17 19  1  0  0  0  0
 17 20  1  0  0  0  0
 17 27  1  0  0  0  0
 18 22  1  0  0  0  0
 18 35  1  0  0  0  0
 19 23  1  0  0  0  0
 19 35  1  0  0  0  0
 21 34  1  0  0  0  0
 24 33  1  0  0  0  0
  1 37  1  0  0  0  0
 12 38  1  0  0  0  0
 12 39  1  0  0  0  0
 13 40  1  0  0  0  0
 13 41  1  0  0  0  0
 14 42  1  0  0  0  0
 14 43  1  0  0  0  0
 15 44  1  0  0  0  0
 15 45  1  0  0  0  0
 16 46  1  0  0  0  0
 16 47  1  0  0  0  0
 17 48  1  0  0  0  0
 18 49  1  0  0  0  0
 19 50  1  0  0  0  0
 22 51  1  0  0  0  0
 22 52  1  0  0  0  0
 22 53  1  0  0  0  0
 23 54  1  0  0  0  0
 23 55  1  0  0  0  0
 23 56  1  0  0  0  0
 25 57  1  0  0  0  0
 26 58  1  0  0  0  0
M  END
> <SMILES>
C[C@@H]1CN2[C@H]([C@H](C)O1)C1(Cc3cc4c(noc4c(c32)F)N2CC3(CC3)OC2=O)C(=O)NC(=O)NC1=O

> <FORMATTED_ID>
H3D-008462

> <MOLFORMULA>
C23H22FN5O7

> <Exact Mass>
499.15

> <XLogP>
0.78

> <TPSA_NOPS>
143.6

> <s_m_source_file>
ligprep_h3d.sdf

> <i_m_source_file_index>
1237

> <i_lp_mmshare_version>
55123

> <i_f3d_flags>
0

> <s_epik_input>
Tz1DMVtOSF1DKD1PKVtOSF1DKD1PKUMxMltDQEBIXTNOKFtDSDJdW0NAQEhdKFtDSDNdKU9bQ0BIXTNbQ0gzXSljNGMoW0NIMl0yKVtjSF1jNWMoYzRGKW9uYzVOKEMoTzYpPU8pW0NIMl1DNjdbQ0gyXVtDSDJdNw==

> <s_epik_cmdline>
J2VwaWtfcHl0aG9uJywgJy1waHQnLCAnMC41JywgJy1waCcsICc3LjUnLCAnLXRuJywgJzgnLCAnLW1hJywgJzUwMCcsICctaW1hZScsICc8aW5maWxlLm1hZT4nLCAnLW9tYWUnLCAnPG91dGZpbGUubWFlPic=

> <r_lp_tautomer_probability>
1

> <r_epik_Ionization_Penalty>
0.369125

> <r_epik_Ionization_Penalty_Charging>
0

> <r_epik_Ionization_Penalty_Neutral>
0.369125

> <r_epik_State_Penalty>
0.366447

> <r_epik_Charging_Adjusted_Penalty>
0.366447

> <i_epik_Tot_Q>
0

> <i_epik_Tot_abs_Q>
0

> <s_epik_Chemistry_Notes>
This compound has an ester and may undergo hydrolysis at high or low pH.

> <s_lp_Force_Field>
S-OPLS

> <r_lp_Energy>
46.6146

> <b_lp_Chiralities_Consistent>
1

> <s_lp_Variant>
ligprep_h3d.sdf:1237-1

> <ROCS_ShapeQuery>
_7L13

> <ROCS_TanimotoCombo>
0.749 

> <ROCS_ShapeTanimoto>
0.613 

> <ROCS_ColorTanimoto>
0.136 

> <ROCS_RefTversky>
0.774 

> <ROCS_RefColorTversky>
0.298 

> <ROCS_RefTverskyCombo>
1.072 

> <ROCS_FitTversky>
0.747 

> <ROCS_FitColorTversky>
0.200 

> <ROCS_FitTverskyCombo>
0.947 

> <ROCS_ColorScore>
-2.757

> <ROCS_Overlap>
1288.262

> <ROCS_Rank>
444                 

$$$$
ligprep_h3d.sdf:5123_387
  -OEChem-08212117123D

 60 65  0     0  0  0  0  0  0999 V2000
  -18.7552   -6.2308  -35.1491 C   0  0  0  0  0  0  0  0  0  0  0  0
  -19.7692   -7.1191  -34.7910 C   0  0  0  0  0  0  0  0  0  0  0  0
  -18.6910   -4.9698  -34.5561 C   0  0  0  0  0  0  0  0  0  0  0  0
  -20.7191   -6.7465  -33.8400 C   0  0  0  0  0  0  0  0  0  0  0  0
  -19.6410   -4.5972  -33.6051 C   0  0  0  0  0  0  0  0  0  0  0  0
  -23.3709   -3.9563  -28.4469 C   0  0  0  0  0  0  0  0  0  0  0  0
  -20.6576   -4.4865  -28.9831 C   0  0  0  0  0  0  0  0  0  0  0  0
  -14.7483   -5.0489  -25.2558 C   0  0  0  0  0  0  0  0  0  0  0  0
  -15.1350   -6.1150  -26.0332 C   0  0  0  0  0  0  0  0  0  0  0  0
  -22.4817   -4.2429  -27.4181 C   0  0  0  0  0  0  0  0  0  0  0  0
  -20.6550   -5.4855  -33.2471 C   0  0  0  0  0  0  0  0  0  0  0  0
  -21.1307   -4.5058  -27.6760 C   0  0  0  0  0  0  0  0  0  0  0  0
  -22.8928   -3.9288  -29.7563 C   0  0  0  0  0  0  0  0  0  0  0  0
  -21.5445   -4.1936  -30.0229 C   0  0  0  0  0  0  0  0  0  0  0  0
  -16.8390   -4.7637  -25.5968 C   0  0  0  0  0  0  0  0  0  0  0  0
  -18.2053   -4.3663  -25.6855 C   0  0  0  0  0  0  0  0  0  0  0  0
  -18.6543   -6.3334  -27.0522 C   0  0  0  0  0  0  0  0  0  0  0  0
  -17.3693   -6.7145  -26.9742 C   0  0  0  0  0  0  0  0  0  0  0  0
  -19.0998   -5.1068  -26.3817 C   0  0  0  0  0  0  0  0  0  0  0  0
  -23.4982   -3.1514  -25.3625 C   0  0  0  0  0  0  0  0  0  0  0  0
  -23.5889   -5.6484  -25.6560 C   0  0  0  0  0  0  0  0  0  0  0  0
  -21.3136   -4.4934  -25.3752 C   0  0  0  0  0  0  0  0  0  0  0  0
  -23.8969   -3.3830  -23.9091 C   0  0  0  0  0  0  0  0  0  0  0  0
  -24.0196   -5.7315  -24.1935 C   0  0  0  0  0  0  0  0  0  0  0  0
  -22.7658   -4.3753  -25.9421 C   0  0  0  0  0  0  0  0  0  0  0  0
  -23.8972   -2.2790  -31.1438 C   0  0  0  0  0  0  0  0  0  0  0  0
  -21.6767   -5.0840  -32.2241 C   0  0  0  0  0  0  0  0  0  0  0  0
  -15.8057   -4.2167  -24.9892 N   0  0  0  0  0  0  0  0  0  0  0  0
  -16.4761   -5.9334  -26.2526 N   0  0  0  0  0  0  0  0  0  0  0  0
  -20.4084   -4.7725  -26.4966 N   0  0  0  0  0  0  0  0  0  0  0  0
  -24.7110   -4.5492  -23.7948 O   0  0  0  0  0  0  0  0  0  0  0  0
  -23.7539   -3.6490  -30.7752 O   0  0  0  0  0  0  0  0  0  0  0  0
  -21.0813   -4.1709  -31.3053 O   0  0  0  0  0  0  0  0  0  0  0  0
  -18.0148   -6.5216  -35.8887 H   0  0  0  0  0  0  0  0  0  0  0  0
  -19.8187   -8.1014  -35.2519 H   0  0  0  0  0  0  0  0  0  0  0  0
  -17.9011   -4.2784  -34.8339 H   0  0  0  0  0  0  0  0  0  0  0  0
  -21.5058   -7.4451  -33.5673 H   0  0  0  0  0  0  0  0  0  0  0  0
  -19.5832   -3.6127  -33.1485 H   0  0  0  0  0  0  0  0  0  0  0  0
  -24.4198   -3.7679  -28.2404 H   0  0  0  0  0  0  0  0  0  0  0  0
  -19.6155   -4.6888  -29.2098 H   0  0  0  0  0  0  0  0  0  0  0  0
  -13.7598   -4.8388  -24.8744 H   0  0  0  0  0  0  0  0  0  0  0  0
  -14.5910   -6.9581  -26.4364 H   0  0  0  0  0  0  0  0  0  0  0  0
  -18.5093   -3.4549  -25.1797 H   0  0  0  0  0  0  0  0  0  0  0  0
  -19.3731   -6.9247  -27.6093 H   0  0  0  0  0  0  0  0  0  0  0  0
  -16.9923   -7.6107  -27.4518 H   0  0  0  0  0  0  0  0  0  0  0  0
  -24.4149   -2.9691  -25.9384 H   0  0  0  0  0  0  0  0  0  0  0  0
  -22.8878   -2.2443  -25.4478 H   0  0  0  0  0  0  0  0  0  0  0  0
  -23.0342   -6.5530  -25.9343 H   0  0  0  0  0  0  0  0  0  0  0  0
  -24.4969   -5.6335  -26.2742 H   0  0  0  0  0  0  0  0  0  0  0  0
  -20.9995   -3.5515  -24.9062 H   0  0  0  0  0  0  0  0  0  0  0  0
  -21.2295   -5.2762  -24.6129 H   0  0  0  0  0  0  0  0  0  0  0  0
  -23.0221   -3.4792  -23.2559 H   0  0  0  0  0  0  0  0  0  0  0  0
  -24.4841   -2.5328  -23.5470 H   0  0  0  0  0  0  0  0  0  0  0  0
  -24.7036   -6.5761  -24.0596 H   0  0  0  0  0  0  0  0  0  0  0  0
  -23.1678   -5.8969  -23.5250 H   0  0  0  0  0  0  0  0  0  0  0  0
  -24.6114   -2.1951  -31.9666 H   0  0  0  0  0  0  0  0  0  0  0  0
  -22.9265   -1.8790  -31.4475 H   0  0  0  0  0  0  0  0  0  0  0  0
  -24.2679   -1.7164  -30.2837 H   0  0  0  0  0  0  0  0  0  0  0  0
  -22.5381   -4.6020  -32.6990 H   0  0  0  0  0  0  0  0  0  0  0  0
  -22.0410   -5.9593  -31.6756 H   0  0  0  0  0  0  0  0  0  0  0  0
  1  2  2  0  0  0  0
  1  3  1  0  0  0  0
  2  4  1  0  0  0  0
  3  5  2  0  0  0  0
  4 11  2  0  0  0  0
  5 11  1  0  0  0  0
  6 10  1  0  0  0  0
  6 13  2  0  0  0  0
  7 12  1  0  0  0  0
  7 14  2  0  0  0  0
  8  9  2  0  0  0  0
  8 28  1  0  0  0  0
  9 29  1  0  0  0  0
 10 12  2  0  0  0  0
 10 25  1  0  0  0  0
 11 27  1  0  0  0  0
 12 30  1  0  0  0  0
 13 14  1  0  0  0  0
 13 32  1  0  0  0  0
 14 33  1  0  0  0  0
 15 16  1  0  0  0  0
 15 28  2  0  0  0  0
 15 29  1  0  0  0  0
 16 19  2  0  0  0  0
 17 18  2  0  0  0  0
 17 19  1  0  0  0  0
 18 29  1  0  0  0  0
 19 30  1  0  0  0  0
 20 23  1  0  0  0  0
 20 25  1  0  0  0  0
 21 24  1  0  0  0  0
 21 25  1  0  0  0  0
 22 25  1  0  0  0  0
 22 30  1  0  0  0  0
 23 31  1  0  0  0  0
 24 31  1  0  0  0  0
 26 32  1  0  0  0  0
 27 33  1  0  0  0  0
  1 34  1  0  0  0  0
  2 35  1  0  0  0  0
  3 36  1  0  0  0  0
  4 37  1  0  0  0  0
  5 38  1  0  0  0  0
  6 39  1  0  0  0  0
  7 40  1  0  0  0  0
  8 41  1  0  0  0  0
  9 42  1  0  0  0  0
 16 43  1  0  0  0  0
 17 44  1  0  0  0  0
 18 45  1  0  0  0  0
 20 46  1  0  0  0  0
 20 47  1  0  0  0  0
 21 48  1  0  0  0  0
 21 49  1  0  0  0  0
 22 50  1  0  0  0  0
 22 51  1  0  0  0  0
 23 52  1  0  0  0  0
 23 53  1  0  0  0  0
 24 54  1  0  0  0  0
 24 55  1  0  0  0  0
 26 56  1  0  0  0  0
 26 57  1  0  0  0  0
 26 58  1  0  0  0  0
 27 59  1  0  0  0  0
 27 60  1  0  0  0  0
M  END
> <SMILES>
COc1cc2c(cc1OCc1ccccc1)N(CC12CCOCC1)c1ccn2ccnc2c1

> <FORMATTED_ID>
H3D-012881

> <MOLFORMULA>
C27H27N3O3

> <Exact Mass>
441.21

> <XLogP>
6.07

> <TPSA_NOPS>
48.2

> <s_m_source_file>
ligprep_h3d.sdf

> <i_m_source_file_index>
5123

> <i_lp_mmshare_version>
55123

> <i_f3d_flags>
0

> <s_epik_input>
W2NIXTFbY0hdW2NIXVtjSF1bY0hdYzFbQ0gyXU9jKGMoW2NIXTIpT1tDSDNdKVtjSF1jKGMyQzM0W0NIMl1bQ0gyXU9bQ0gyXVtDSDJdNClOKFtDSDJdMyljKFtjSF1bY0hdNSlbY0hdYyhuNTYpbltjSF1bY0hdNg==

> <s_epik_cmdline>
J2VwaWtfcHl0aG9uJywgJy1waHQnLCAnMC41JywgJy1waCcsICc3LjUnLCAnLXRuJywgJzgnLCAnLW1hJywgJzUwMCcsICctaW1hZScsICc8aW5maWxlLm1hZT4nLCAnLW9tYWUnLCAnPG91dGZpbGUubWFlPic=

> <r_lp_tautomer_probability>
1

> <r_epik_Ionization_Penalty>
0.518459

> <r_epik_Ionization_Penalty_Charging>
0.518459

> <r_epik_Ionization_Penalty_Neutral>
1.06508e-08

> <r_epik_State_Penalty>
0.526277

> <r_epik_Charging_Adjusted_Penalty>
1.04474

> <i_epik_Tot_Q>
0

> <i_epik_Tot_abs_Q>
0

> <s_lp_Force_Field>
S-OPLS

> <r_lp_Energy>
61.0895

> <b_lp_Chiralities_Consistent>
1

> <s_lp_Variant>
ligprep_h3d.sdf:5123-2

> <ROCS_ShapeQuery>
_7L13

> <ROCS_TanimotoCombo>
0.727 

> <ROCS_ShapeTanimoto>
0.664 

> <ROCS_ColorTanimoto>
0.064 

> <ROCS_RefTversky>
0.774 

> <ROCS_RefColorTversky>
0.126 

> <ROCS_RefTverskyCombo>
0.900 

> <ROCS_FitTversky>
0.823 

> <ROCS_FitColorTversky>
0.114 

> <ROCS_FitTverskyCombo>
0.937 

> <ROCS_ColorScore>
-1.138

> <ROCS_Overlap>
1281.364

> <ROCS_Rank>
445                 

$$$$
ligprep_h3d.sdf:6811_759
  -OEChem-08212117123D

 65 69  0     1  0  0  0  0  0999 V2000
  -19.4423   -4.4911  -28.5813 C   0  0  0  0  0  0  0  0  0  0  0  0
  -22.6802   -3.7794  -32.0211 C   0  0  0  0  0  0  0  0  0  0  0  0
  -23.0764   -3.7503  -33.3582 C   0  0  0  0  0  0  0  0  0  0  0  0
  -19.7437   -4.4637  -29.9316 C   0  0  0  0  0  0  0  0  0  0  0  0
  -20.6925   -5.0070  -32.6369 C   0  0  0  0  0  0  0  0  0  0  0  0
  -20.4816   -4.4915  -27.6394 C   0  0  0  0  0  0  0  0  0  0  0  0
  -21.4881   -4.4077  -31.6605 C   0  0  0  0  0  0  0  0  0  0  0  0
  -21.0887   -4.9779  -33.9740 C   0  0  0  0  0  0  0  0  0  0  0  0
  -22.2807   -4.3495  -34.3346 C   0  0  0  0  0  0  0  0  0  0  0  0
  -21.0783   -4.4378  -30.2766 C   0  0  0  0  0  0  0  0  0  0  0  0
  -21.8126   -4.4636  -28.0722 C   0  0  0  0  0  0  0  0  0  0  0  0
  -20.2584   -4.5184  -26.2650 C   0  0  0  0  0  0  0  0  0  0  0  0
  -22.4772   -4.4906  -25.8707 C   0  0  0  0  0  0  0  0  0  0  0  0
  -18.3146   -5.8553  -25.5651 C   0  0  0  0  0  0  0  0  0  0  0  0
  -18.4634   -3.4682  -24.9123 C   0  0  0  0  0  0  0  0  0  0  0  0
  -24.8218   -5.0967  -25.3309 C   0  0  0  0  0  0  0  0  0  0  0  0
  -23.2206   -4.5257  -23.5262 C   0  0  0  0  0  0  0  0  0  0  0  0
  -16.7984   -5.6984  -25.5442 C   0  0  0  0  0  0  0  0  0  0  0  0
  -16.9390   -3.4389  -24.9257 C   0  0  0  0  0  0  0  0  0  0  0  0
  -25.9335   -4.5372  -24.4382 C   0  0  1  0  0  0  0  0  0  0  0  0
  -24.4089   -3.9913  -22.7219 C   0  0  2  0  0  0  0  0  0  0  0  0
  -27.2524   -5.2542  -24.6911 C   0  0  0  0  0  0  0  0  0  0  0  0
  -24.1766   -4.1525  -21.2260 C   0  0  0  0  0  0  0  0  0  0  0  0
  -23.9147   -3.6496  -35.9145 C   0  0  0  0  0  0  0  0  0  0  0  0
  -20.2252   -5.6246  -35.0064 C   0  0  0  0  0  0  0  0  0  0  0  0
  -22.0957   -4.4372  -29.3818 N   0  0  0  0  0  0  0  0  0  0  0  0
  -22.8083   -4.4632  -27.1788 N   0  0  0  0  0  0  0  0  0  0  0  0
  -21.2423   -4.5189  -25.3503 N   0  0  0  0  0  0  0  0  0  0  0  0
  -18.9460   -4.5464  -25.7822 N   0  0  0  0  0  0  0  0  0  0  0  0
  -23.5391   -4.4881  -24.9605 N   0  0  0  0  0  0  0  0  0  0  0  0
  -16.4112   -4.7191  -24.5805 O   0  0  0  0  0  0  0  0  0  0  0  0
  -25.5934   -4.7200  -23.0603 O   0  0  0  0  0  0  0  0  0  0  0  0
  -20.0871   -7.0072  -34.7053 O   0  0  0  0  0  0  0  0  0  0  0  0
  -22.6832   -4.3127  -35.6355 O   0  0  0  0  0  0  0  0  0  0  0  0
  -18.3977   -4.5129  -28.2839 H   0  0  0  0  0  0  0  0  0  0  0  0
  -23.3116   -3.3076  -31.2719 H   0  0  0  0  0  0  0  0  0  0  0  0
  -24.0063   -3.2596  -33.6329 H   0  0  0  0  0  0  0  0  0  0  0  0
  -18.9526   -4.4638  -30.6734 H   0  0  0  0  0  0  0  0  0  0  0  0
  -19.7616   -5.4986  -32.3608 H   0  0  0  0  0  0  0  0  0  0  0  0
  -18.6010   -6.5667  -26.3534 H   0  0  0  0  0  0  0  0  0  0  0  0
  -18.6579   -6.2640  -24.6022 H   0  0  0  0  0  0  0  0  0  0  0  0
  -18.8212   -3.6462  -23.8863 H   0  0  0  0  0  0  0  0  0  0  0  0
  -18.8537   -2.4930  -25.2381 H   0  0  0  0  0  0  0  0  0  0  0  0
  -24.7481   -6.1850  -25.2039 H   0  0  0  0  0  0  0  0  0  0  0  0
  -25.0551   -4.8913  -26.3829 H   0  0  0  0  0  0  0  0  0  0  0  0
  -22.3300   -3.9210  -23.3152 H   0  0  0  0  0  0  0  0  0  0  0  0
  -23.0055   -5.5633  -23.2379 H   0  0  0  0  0  0  0  0  0  0  0  0
  -16.3321   -6.6472  -25.2600 H   0  0  0  0  0  0  0  0  0  0  0  0
  -16.4084   -5.4229  -26.5314 H   0  0  0  0  0  0  0  0  0  0  0  0
  -16.5510   -3.1279  -25.9033 H   0  0  0  0  0  0  0  0  0  0  0  0
  -16.5771   -2.7190  -24.1846 H   0  0  0  0  0  0  0  0  0  0  0  0
  -26.0776   -3.4652  -24.6329 H   0  0  0  0  0  0  0  0  0  0  0  0
  -24.5692   -2.9254  -22.9368 H   0  0  0  0  0  0  0  0  0  0  0  0
  -27.1385   -6.3225  -24.5052 H   0  0  0  0  0  0  0  0  0  0  0  0
  -27.5652   -5.1072  -25.7251 H   0  0  0  0  0  0  0  0  0  0  0  0
  -28.0243   -4.8608  -24.0291 H   0  0  0  0  0  0  0  0  0  0  0  0
  -24.0143   -5.2032  -20.9843 H   0  0  0  0  0  0  0  0  0  0  0  0
  -25.0442   -3.7928  -20.6724 H   0  0  0  0  0  0  0  0  0  0  0  0
  -23.3002   -3.5804  -20.9203 H   0  0  0  0  0  0  0  0  0  0  0  0
  -24.1179   -3.6929  -36.9873 H   0  0  0  0  0  0  0  0  0  0  0  0
  -23.8517   -2.6089  -35.5865 H   0  0  0  0  0  0  0  0  0  0  0  0
  -24.7197   -4.1521  -35.3729 H   0  0  0  0  0  0  0  0  0  0  0  0
  -20.6596   -5.5244  -36.0097 H   0  0  0  0  0  0  0  0  0  0  0  0
  -19.2279   -5.1661  -35.0307 H   0  0  0  0  0  0  0  0  0  0  0  0
  -19.5219   -7.3888  -35.3962 H   0  0  0  0  0  0  0  0  0  0  0  0
  1  4  1  0  0  0  0
  1  6  2  0  0  0  0
  2  3  1  0  0  0  0
  2  7  2  0  0  0  0
  3  9  2  0  0  0  0
  4 10  2  0  0  0  0
  5  7  1  0  0  0  0
  5  8  2  0  0  0  0
  6 11  1  0  0  0  0
  6 12  1  0  0  0  0
  7 10  1  0  0  0  0
  8  9  1  0  0  0  0
  8 25  1  0  0  0  0
  9 34  1  0  0  0  0
 10 26  1  0  0  0  0
 11 26  2  0  0  0  0
 11 27  1  0  0  0  0
 12 28  2  0  0  0  0
 12 29  1  0  0  0  0
 13 27  2  0  0  0  0
 13 28  1  0  0  0  0
 13 30  1  0  0  0  0
 14 18  1  0  0  0  0
 14 29  1  0  0  0  0
 15 19  1  0  0  0  0
 15 29  1  0  0  0  0
 16 20  1  0  0  0  0
 16 30  1  0  0  0  0
 17 21  1  0  0  0  0
 17 30  1  0  0  0  0
 18 31  1  0  0  0  0
 19 31  1  0  0  0  0
 20 22  1  0  0  0  0
 20 32  1  0  0  0  0
 21 23  1  0  0  0  0
 21 32  1  0  0  0  0
 24 34  1  0  0  0  0
 25 33  1  0  0  0  0
  1 35  1  0  0  0  0
  2 36  1  0  0  0  0
  3 37  1  0  0  0  0
  4 38  1  0  0  0  0
  5 39  1  0  0  0  0
 14 40  1  0  0  0  0
 14 41  1  0  0  0  0
 15 42  1  0  0  0  0
 15 43  1  0  0  0  0
 16 44  1  0  0  0  0
 16 45  1  0  0  0  0
 17 46  1  0  0  0  0
 17 47  1  0  0  0  0
 18 48  1  0  0  0  0
 18 49  1  0  0  0  0
 19 50  1  0  0  0  0
 19 51  1  0  0  0  0
 20 52  1  0  0  0  0
 21 53  1  0  0  0  0
 22 54  1  0  0  0  0
 22 55  1  0  0  0  0
 22 56  1  0  0  0  0
 23 57  1  0  0  0  0
 23 58  1  0  0  0  0
 23 59  1  0  0  0  0
 24 60  1  0  0  0  0
 24 61  1  0  0  0  0
 24 62  1  0  0  0  0
 25 63  1  0  0  0  0
 25 64  1  0  0  0  0
 33 65  1  0  0  0  0
M  END
> <SMILES>
COc1ccc(cc1CO)-c1ccc2c(nc(nc2n1)N1C[C@@H](C)O[C@@H](C)C1)N1CCOCC1

> <FORMATTED_ID>
H3D-006530

> <MOLFORMULA>
C25H31N5O4

> <Exact Mass>
465.24

> <XLogP>
2.26

> <TPSA_NOPS>
93.1

> <s_m_source_file>
ligprep_h3d.sdf

> <i_m_source_file_index>
6811

> <i_lp_mmshare_version>
55123

> <i_f3d_flags>
0

> <s_epik_input>
W0NIM11PYzFbY0hdW2NIXWMoW2NIXWMxW0NIMl1bT0hdKS1jKFtjSF1bY0hdMiluYyhjMjMpbmMoTjRbQ0gyXVtDQEBIXShbQ0gzXSlPW0NAQEhdKFtDSDNdKVtDSDJdNCluYzNONVtDSDJdW0NIMl1PW0NIMl1bQ0gyXTU=

> <s_epik_cmdline>
J2VwaWtfcHl0aG9uJywgJy1waHQnLCAnMC41JywgJy1waCcsICc3LjUnLCAnLXRuJywgJzgnLCAnLW1hJywgJzUwMCcsICctaW1hZScsICc8aW5maWxlLm1hZT4nLCAnLW9tYWUnLCAnPG91dGZpbGUubWFlPic=

> <r_lp_tautomer_probability>
1

> <r_epik_Ionization_Penalty>
5.37277e-06

> <r_epik_Ionization_Penalty_Charging>
0

> <r_epik_Ionization_Penalty_Neutral>
5.37277e-06

> <r_epik_State_Penalty>
-0

> <r_epik_Charging_Adjusted_Penalty>
0

> <i_epik_Tot_Q>
0

> <i_epik_Tot_abs_Q>
0

> <s_lp_Force_Field>
S-OPLS

> <r_lp_Energy>
68.6829

> <b_lp_Chiralities_Consistent>
1

> <s_lp_Variant>
ligprep_h3d.sdf:6811-1

> <ROCS_ShapeQuery>
_7L13

> <ROCS_TanimotoCombo>
0.763 

> <ROCS_ShapeTanimoto>
0.657 

> <ROCS_ColorTanimoto>
0.106 

> <ROCS_RefTversky>
0.774 

> <ROCS_RefColorTversky>
0.230 

> <ROCS_RefTverskyCombo>
1.004 

> <ROCS_FitTversky>
0.813 

> <ROCS_FitColorTversky>
0.165 

> <ROCS_FitTverskyCombo>
0.978 

> <ROCS_ColorScore>
-2.117

> <ROCS_Overlap>
1282.219

> <ROCS_Rank>
446                 

$$$$
ligprep_h3d.sdf:4675_1984
  -OEChem-08212117123D

 58 62  0     1  0  0  0  0  0999 V2000
  -16.2038   -5.4947  -25.0586 C   0  0  0  0  0  0  0  0  0  0  0  0
  -25.9474   -5.1985  -22.9341 C   0  0  0  0  0  0  0  0  0  0  0  0
  -16.4455   -4.2305  -25.5962 C   0  0  0  0  0  0  0  0  0  0  0  0
  -17.1882   -6.4808  -25.1253 C   0  0  0  0  0  0  0  0  0  0  0  0
  -26.1813   -4.9284  -24.2824 C   0  0  0  0  0  0  0  0  0  0  0  0
  -24.7185   -4.8723  -22.3604 C   0  0  0  0  0  0  0  0  0  0  0  0
  -22.1156   -5.9220  -32.1762 C   0  0  0  0  0  0  0  0  0  0  0  0
  -21.0185   -3.9783  -33.1011 C   0  0  0  0  0  0  0  0  0  0  0  0
  -17.6716   -3.9523  -26.2003 C   0  0  0  0  0  0  0  0  0  0  0  0
  -18.4142   -6.2026  -25.7294 C   0  0  0  0  0  0  0  0  0  0  0  0
  -25.1863   -4.3322  -25.0571 C   0  0  0  0  0  0  0  0  0  0  0  0
  -23.7235   -4.2761  -23.1351 C   0  0  0  0  0  0  0  0  0  0  0  0
  -21.3750   -6.7441  -33.0255 C   0  0  0  0  0  0  0  0  0  0  0  0
  -20.2779   -4.8004  -33.9504 C   0  0  0  0  0  0  0  0  0  0  0  0
  -21.9374   -4.5391  -32.2141 C   0  0  0  0  0  0  0  0  0  0  0  0
  -18.6560   -4.9384  -26.2670 C   0  0  0  0  0  0  0  0  0  0  0  0
  -23.9574   -4.0060  -24.4835 C   0  0  0  0  0  0  0  0  0  0  0  0
  -20.4562   -6.1834  -33.9126 C   0  0  0  0  0  0  0  0  0  0  0  0
  -22.7183   -3.6717  -31.3182 C   0  0  0  0  0  0  0  0  0  0  0  0
  -23.3054   -3.0398  -28.9988 C   0  0  0  0  0  0  0  0  0  0  0  0
  -20.3924   -3.4774  -27.4920 C   0  0  0  0  0  0  0  0  0  0  0  0
  -21.1497   -5.3174  -26.7999 C   0  0  0  0  0  0  0  0  0  0  0  0
  -21.6701   -4.8080  -29.2941 C   0  0  0  0  0  0  0  0  0  0  0  0
  -23.0597   -3.6957  -27.6461 C   0  0  1  0  0  0  0  0  0  0  0  0
  -21.6657   -4.2991  -27.8431 C   0  0  0  0  0  0  0  0  0  0  0  0
  -23.1973   -2.7273  -26.4867 C   0  0  0  0  0  0  0  0  0  0  0  0
  -19.8883   -4.6592  -26.8742 N   0  0  0  0  0  0  0  0  0  0  0  0
  -22.5762   -3.8657  -29.9505 N   0  0  0  0  0  0  0  0  0  0  0  0
  -22.9608   -3.4088  -25.2589 N   0  0  0  0  0  0  0  0  0  0  0  0
  -23.4391   -2.8241  -31.8415 O   0  0  0  0  0  0  0  0  0  0  0  0
  -19.7336   -6.9853  -34.7415 O   0  0  0  0  0  0  0  0  0  0  0  0
  -15.2491   -5.7111  -24.5880 H   0  0  0  0  0  0  0  0  0  0  0  0
  -26.7222   -5.6630  -22.3310 H   0  0  0  0  0  0  0  0  0  0  0  0
  -15.6792   -3.4629  -25.5441 H   0  0  0  0  0  0  0  0  0  0  0  0
  -16.9997   -7.4652  -24.7066 H   0  0  0  0  0  0  0  0  0  0  0  0
  -27.1380   -5.1825  -24.7289 H   0  0  0  0  0  0  0  0  0  0  0  0
  -24.5365   -5.0827  -21.3104 H   0  0  0  0  0  0  0  0  0  0  0  0
  -22.8285   -6.3703  -31.4889 H   0  0  0  0  0  0  0  0  0  0  0  0
  -20.8721   -2.9018  -33.1382 H   0  0  0  0  0  0  0  0  0  0  0  0
  -17.8501   -2.9640  -26.6161 H   0  0  0  0  0  0  0  0  0  0  0  0
  -19.1737   -6.9790  -25.7758 H   0  0  0  0  0  0  0  0  0  0  0  0
  -25.3785   -4.1260  -26.1069 H   0  0  0  0  0  0  0  0  0  0  0  0
  -22.7698   -4.0261  -22.6772 H   0  0  0  0  0  0  0  0  0  0  0  0
  -21.5185   -7.8207  -32.9914 H   0  0  0  0  0  0  0  0  0  0  0  0
  -19.5639   -4.3579  -34.6396 H   0  0  0  0  0  0  0  0  0  0  0  0
  -24.3630   -3.0977  -29.2751 H   0  0  0  0  0  0  0  0  0  0  0  0
  -22.9878   -1.9962  -29.0597 H   0  0  0  0  0  0  0  0  0  0  0  0
  -19.7877   -3.1406  -28.3344 H   0  0  0  0  0  0  0  0  0  0  0  0
  -20.5407   -2.6664  -26.7752 H   0  0  0  0  0  0  0  0  0  0  0  0
  -21.5937   -5.2460  -25.7987 H   0  0  0  0  0  0  0  0  0  0  0  0
  -21.1040   -6.3681  -27.1057 H   0  0  0  0  0  0  0  0  0  0  0  0
  -20.6855   -4.7108  -29.7627 H   0  0  0  0  0  0  0  0  0  0  0  0
  -22.0263   -5.8360  -29.4044 H   0  0  0  0  0  0  0  0  0  0  0  0
  -23.8274   -4.5147  -27.4978 H   0  0  0  0  0  0  0  0  0  0  0  0
  -22.4616   -1.9389  -26.6360 H   0  0  0  0  0  0  0  0  0  0  0  0
  -24.2106   -2.3305  -26.5165 H   0  0  0  0  0  0  0  0  0  0  0  0
  -22.0031   -3.4775  -24.9049 H   0  0  0  0  0  0  0  0  0  0  0  0
  -19.9683   -7.9160  -34.5981 H   0  0  0  0  0  0  0  0  0  0  0  0
  1  3  2  0  0  0  0
  1  4  1  0  0  0  0
  2  5  2  0  0  0  0
  2  6  1  0  0  0  0
  3  9  1  0  0  0  0
  4 10  2  0  0  0  0
  5 11  1  0  0  0  0
  6 12  2  0  0  0  0
  7 13  1  0  0  0  0
  7 15  2  0  0  0  0
  8 14  2  0  0  0  0
  8 15  1  0  0  0  0
  9 16  2  0  0  0  0
 10 16  1  0  0  0  0
 11 17  2  0  0  0  0
 12 17  1  0  0  0  0
 13 18  2  0  0  0  0
 14 18  1  0  0  0  0
 15 19  1  0  0  0  0
 16 27  1  0  0  0  0
 17 29  1  0  0  0  0
 18 31  1  0  0  0  0
 19 28  1  0  0  0  0
 19 30  2  0  0  0  0
 20 24  1  0  0  0  0
 20 28  1  0  0  0  0
 21 25  1  0  0  0  0
 21 27  1  0  0  0  0
 22 25  1  0  0  0  0
 22 27  1  0  0  0  0
 23 25  1  0  0  0  0
 23 28  1  0  0  0  0
 24 25  1  0  0  0  0
 24 26  1  0  0  0  0
 26 29  1  0  0  0  0
  1 32  1  0  0  0  0
  2 33  1  0  0  0  0
  3 34  1  0  0  0  0
  4 35  1  0  0  0  0
  5 36  1  0  0  0  0
  6 37  1  0  0  0  0
  7 38  1  0  0  0  0
  8 39  1  0  0  0  0
  9 40  1  0  0  0  0
 10 41  1  0  0  0  0
 11 42  1  0  0  0  0
 12 43  1  0  0  0  0
 13 44  1  0  0  0  0
 14 45  1  0  0  0  0
 20 46  1  0  0  0  0
 20 47  1  0  0  0  0
 21 48  1  0  0  0  0
 21 49  1  0  0  0  0
 22 50  1  0  0  0  0
 22 51  1  0  0  0  0
 23 52  1  0  0  0  0
 23 53  1  0  0  0  0
 24 54  1  0  0  0  0
 26 55  1  0  0  0  0
 26 56  1  0  0  0  0
 29 57  1  0  0  0  0
 31 58  1  0  0  0  0
M  END
> <SMILES>
Oc1ccc(cc1)C(=O)N1CC(CNc2ccccc2)C2(C1)CN(C2)c1ccccc1

> <FORMATTED_ID>
H3D-005999

> <MOLFORMULA>
C26H27N3O2

> <Exact Mass>
413.21

> <XLogP>
3.72

> <TPSA_NOPS>
55.8

> <s_m_source_file>
ligprep_h3d.sdf

> <i_m_source_file_index>
4675

> <i_lp_mmshare_version>
55123

> <i_f3d_flags>
0

> <s_epik_input>
W09IXWMxW2NIXVtjSF1jKFtjSF1bY0hdMSlDKD1PKU4oW0NIMl0yKVtDSDJdW0NASF0oW0NIMl1bTkhdYzNbY0hdW2NIXVtjSF1bY0hdW2NIXTMpQzI0W0NIMl1OKFtDSDJdNCljNVtjSF1bY0hdW2NIXVtjSF1bY0hdNQ==

> <s_epik_cmdline>
J2VwaWtfcHl0aG9uJywgJy1waHQnLCAnMC41JywgJy1waCcsICc3LjUnLCAnLXRuJywgJzgnLCAnLW1hJywgJzUwMCcsICctaW1hZScsICc8aW5maWxlLm1hZT4nLCAnLW9tYWUnLCAnPG91dGZpbGUubWFlPic=

> <r_lp_tautomer_probability>
1

> <r_epik_Ionization_Penalty>
0.0344056

> <r_epik_Ionization_Penalty_Charging>
0

> <r_epik_Ionization_Penalty_Neutral>
0.0344056

> <r_epik_State_Penalty>
0.0260868

> <r_epik_Charging_Adjusted_Penalty>
0.0260868

> <i_epik_Tot_Q>
0

> <i_epik_Tot_abs_Q>
0

> <s_lp_Force_Field>
S-OPLS

> <r_lp_Energy>
38.1999

> <b_lp_Chiralities_Consistent>
1

> <s_lp_Variant>
ligprep_h3d.sdf:4675-1

> <ROCS_ShapeQuery>
_7L13

> <ROCS_TanimotoCombo>
0.792 

> <ROCS_ShapeTanimoto>
0.706 

> <ROCS_ColorTanimoto>
0.086 

> <ROCS_RefTversky>
0.774 

> <ROCS_RefColorTversky>
0.158 

> <ROCS_RefTverskyCombo>
0.932 

> <ROCS_FitTversky>
0.889 

> <ROCS_FitColorTversky>
0.158 

> <ROCS_FitTverskyCombo>
1.048 

> <ROCS_ColorScore>
-1.425

> <ROCS_Overlap>
1276.179

> <ROCS_Rank>
447                 

$$$$
ligprep_h3d.sdf:5123_1930
  -OEChem-08212117123D

 61 66  0     0  0  0  0  0  0999 V2000
  -18.6878   -6.1976  -35.0779 C   0  0  0  0  0  0  0  0  0  0  0  0
  -19.6838   -7.1070  -34.7223 C   0  0  0  0  0  0  0  0  0  0  0  0
  -18.6558   -4.9330  -34.4903 C   0  0  0  0  0  0  0  0  0  0  0  0
  -20.6480   -6.7517  -33.7791 C   0  0  0  0  0  0  0  0  0  0  0  0
  -19.6201   -4.5777  -33.5471 C   0  0  0  0  0  0  0  0  0  0  0  0
  -23.3969   -3.9983  -28.4158 C   0  0  0  0  0  0  0  0  0  0  0  0
  -20.6689   -4.4696  -28.9322 C   0  0  0  0  0  0  0  0  0  0  0  0
  -15.1190   -6.1160  -25.9483 C   0  0  0  0  0  0  0  0  0  0  0  0
  -14.5635   -4.8688  -25.8321 C   0  0  0  0  0  0  0  0  0  0  0  0
  -22.5082   -4.2603  -27.3800 C   0  0  0  0  0  0  0  0  0  0  0  0
  -20.6162   -5.4870  -33.1915 C   0  0  0  0  0  0  0  0  0  0  0  0
  -21.1499   -4.4937  -27.6280 C   0  0  0  0  0  0  0  0  0  0  0  0
  -22.9111   -3.9658  -29.7222 C   0  0  0  0  0  0  0  0  0  0  0  0
  -21.5554   -4.2013  -29.9789 C   0  0  0  0  0  0  0  0  0  0  0  0
  -16.7482   -4.6146  -26.0488 C   0  0  0  0  0  0  0  0  0  0  0  0
  -18.1440   -4.1149  -26.1723 C   0  0  0  0  0  0  0  0  0  0  0  0
  -18.7296   -6.4654  -26.3439 C   0  0  0  0  0  0  0  0  0  0  0  0
  -17.4571   -6.8907  -26.2296 C   0  0  0  0  0  0  0  0  0  0  0  0
  -19.1145   -5.0432  -26.3181 C   0  0  0  0  0  0  0  0  0  0  0  0
  -23.5624   -3.1829  -25.3359 C   0  0  0  0  0  0  0  0  0  0  0  0
  -23.5949   -5.6826  -25.6187 C   0  0  0  0  0  0  0  0  0  0  0  0
  -21.3481   -4.4754  -25.3285 C   0  0  0  0  0  0  0  0  0  0  0  0
  -23.9651   -3.4170  -23.8841 C   0  0  0  0  0  0  0  0  0  0  0  0
  -24.0331   -5.7689  -24.1585 C   0  0  0  0  0  0  0  0  0  0  0  0
  -22.7988   -4.3925  -25.9053 C   0  0  0  0  0  0  0  0  0  0  0  0
  -23.9433   -2.3452  -31.1236 C   0  0  0  0  0  0  0  0  0  0  0  0
  -21.6533   -5.1041  -32.1769 C   0  0  0  0  0  0  0  0  0  0  0  0
  -16.4793   -5.9331  -26.0821 N   0  0  0  0  0  0  0  0  0  0  0  0
  -15.5940   -3.9600  -25.8973 N   0  3  0  0  0  0  0  0  0  0  0  0
  -20.4295   -4.7390  -26.4429 N   0  0  0  0  0  0  0  0  0  0  0  0
  -24.7535   -4.6008  -23.7697 O   0  0  0  0  0  0  0  0  0  0  0  0
  -23.7716   -3.7099  -30.7478 O   0  0  0  0  0  0  0  0  0  0  0  0
  -21.0846   -4.1738  -31.2585 O   0  0  0  0  0  0  0  0  0  0  0  0
  -17.9362   -6.4749  -35.8114 H   0  0  0  0  0  0  0  0  0  0  0  0
  -19.7082   -8.0921  -35.1790 H   0  0  0  0  0  0  0  0  0  0  0  0
  -17.8798   -4.2251  -34.7661 H   0  0  0  0  0  0  0  0  0  0  0  0
  -21.4205   -7.4667  -33.5083 H   0  0  0  0  0  0  0  0  0  0  0  0
  -19.5874   -3.5901  -33.0946 H   0  0  0  0  0  0  0  0  0  0  0  0
  -24.4511   -3.8327  -28.2169 H   0  0  0  0  0  0  0  0  0  0  0  0
  -19.6211   -4.6493  -29.1513 H   0  0  0  0  0  0  0  0  0  0  0  0
  -14.7302   -7.1167  -25.9543 H   0  0  0  0  0  0  0  0  0  0  0  0
  -13.5707   -4.4829  -25.7104 H   0  0  0  0  0  0  0  0  0  0  0  0
  -18.3371   -3.0497  -26.1429 H   0  0  0  0  0  0  0  0  0  0  0  0
  -19.5229   -7.1982  -26.4618 H   0  0  0  0  0  0  0  0  0  0  0  0
  -17.1640   -7.9324  -26.2475 H   0  0  0  0  0  0  0  0  0  0  0  0
  -24.4792   -3.0239  -25.9185 H   0  0  0  0  0  0  0  0  0  0  0  0
  -22.9719   -2.2627  -25.4215 H   0  0  0  0  0  0  0  0  0  0  0  0
  -23.0181   -6.5757  -25.8892 H   0  0  0  0  0  0  0  0  0  0  0  0
  -24.4989   -5.6909  -26.2427 H   0  0  0  0  0  0  0  0  0  0  0  0
  -21.0583   -3.5246  -24.8619 H   0  0  0  0  0  0  0  0  0  0  0  0
  -21.2513   -5.2527  -24.5621 H   0  0  0  0  0  0  0  0  0  0  0  0
  -23.0926   -3.4906  -23.2249 H   0  0  0  0  0  0  0  0  0  0  0  0
  -24.5736   -2.5787  -23.5296 H   0  0  0  0  0  0  0  0  0  0  0  0
  -24.6988   -6.6281  -24.0253 H   0  0  0  0  0  0  0  0  0  0  0  0
  -23.1821   -5.9122  -23.4839 H   0  0  0  0  0  0  0  0  0  0  0  0
  -24.6538   -2.2810  -31.9513 H   0  0  0  0  0  0  0  0  0  0  0  0
  -22.9799   -1.9248  -31.4229 H   0  0  0  0  0  0  0  0  0  0  0  0
  -24.3322   -1.7873  -30.2684 H   0  0  0  0  0  0  0  0  0  0  0  0
  -22.5222   -4.6438  -32.6595 H   0  0  0  0  0  0  0  0  0  0  0  0
  -22.0013   -5.9850  -31.6268 H   0  0  0  0  0  0  0  0  0  0  0  0
  -15.4929   -2.9504  -25.8397 H   0  0  0  0  0  0  0  0  0  0  0  0
  1  2  2  0  0  0  0
  1  3  1  0  0  0  0
  2  4  1  0  0  0  0
  3  5  2  0  0  0  0
  4 11  2  0  0  0  0
  5 11  1  0  0  0  0
  6 10  1  0  0  0  0
  6 13  2  0  0  0  0
  7 12  1  0  0  0  0
  7 14  2  0  0  0  0
  8  9  2  0  0  0  0
  8 28  1  0  0  0  0
  9 29  1  0  0  0  0
 10 12  2  0  0  0  0
 10 25  1  0  0  0  0
 11 27  1  0  0  0  0
 12 30  1  0  0  0  0
 13 14  1  0  0  0  0
 13 32  1  0  0  0  0
 14 33  1  0  0  0  0
 15 16  1  0  0  0  0
 15 28  1  0  0  0  0
 15 29  2  0  0  0  0
 16 19  2  0  0  0  0
 17 18  2  0  0  0  0
 17 19  1  0  0  0  0
 18 28  1  0  0  0  0
 19 30  1  0  0  0  0
 20 23  1  0  0  0  0
 20 25  1  0  0  0  0
 21 24  1  0  0  0  0
 21 25  1  0  0  0  0
 22 25  1  0  0  0  0
 22 30  1  0  0  0  0
 23 31  1  0  0  0  0
 24 31  1  0  0  0  0
 26 32  1  0  0  0  0
 27 33  1  0  0  0  0
  1 34  1  0  0  0  0
  2 35  1  0  0  0  0
  3 36  1  0  0  0  0
  4 37  1  0  0  0  0
  5 38  1  0  0  0  0
  6 39  1  0  0  0  0
  7 40  1  0  0  0  0
  8 41  1  0  0  0  0
  9 42  1  0  0  0  0
 16 43  1  0  0  0  0
 17 44  1  0  0  0  0
 18 45  1  0  0  0  0
 20 46  1  0  0  0  0
 20 47  1  0  0  0  0
 21 48  1  0  0  0  0
 21 49  1  0  0  0  0
 22 50  1  0  0  0  0
 22 51  1  0  0  0  0
 23 52  1  0  0  0  0
 23 53  1  0  0  0  0
 24 54  1  0  0  0  0
 24 55  1  0  0  0  0
 26 56  1  0  0  0  0
 26 57  1  0  0  0  0
 26 58  1  0  0  0  0
 27 59  1  0  0  0  0
 27 60  1  0  0  0  0
 29 61  1  0  0  0  0
M  CHG  1  29   1
M  END
> <SMILES>
COc1cc2c(cc1OCc1ccccc1)N(CC12CCOCC1)c1ccn2ccnc2c1

> <FORMATTED_ID>
H3D-012881

> <MOLFORMULA>
C27H27N3O3

> <Exact Mass>
441.21

> <XLogP>
6.07

> <TPSA_NOPS>
48.2

> <s_m_source_file>
ligprep_h3d.sdf

> <i_m_source_file_index>
5123

> <i_lp_mmshare_version>
55123

> <i_f3d_flags>
0

> <s_epik_input>
W2NIXTFbY0hdW2NIXVtjSF1bY0hdYzFbQ0gyXU9jKGMoW2NIXTIpT1tDSDNdKVtjSF1jKGMyQzM0W0NIMl1bQ0gyXU9bQ0gyXVtDSDJdNClOKFtDSDJdMyljKFtjSF1bY0hdNSlbY0hdYyhuNTYpbltjSF1bY0hdNg==

> <s_epik_cmdline>
J2VwaWtfcHl0aG9uJywgJy1waHQnLCAnMC41JywgJy1waCcsICc3LjUnLCAnLXRuJywgJzgnLCAnLW1hJywgJzUwMCcsICctaW1hZScsICc8aW5maWxlLm1hZT4nLCAnLW9tYWUnLCAnPG91dGZpbGUubWFlPic=

> <r_lp_tautomer_probability>
1

> <r_epik_Ionization_Penalty>
0.319522

> <r_epik_Ionization_Penalty_Charging>
0

> <r_epik_Ionization_Penalty_Neutral>
0.319522

> <r_epik_State_Penalty>
0.313996

> <r_epik_Charging_Adjusted_Penalty>
0.313996

> <i_epik_Tot_Q>
1

> <i_epik_Tot_abs_Q>
1

> <s_lp_Force_Field>
S-OPLS

> <r_lp_Energy>
70.9732

> <b_lp_Chiralities_Consistent>
1

> <s_lp_Variant>
ligprep_h3d.sdf:5123-1

> <ROCS_ShapeQuery>
_7L13

> <ROCS_TanimotoCombo>
0.724 

> <ROCS_ShapeTanimoto>
0.664 

> <ROCS_ColorTanimoto>
0.060 

> <ROCS_RefTversky>
0.774 

> <ROCS_RefColorTversky>
0.125 

> <ROCS_RefTverskyCombo>
0.899 

> <ROCS_FitTversky>
0.824 

> <ROCS_FitColorTversky>
0.104 

> <ROCS_FitTverskyCombo>
0.928 

> <ROCS_ColorScore>
-1.136

> <ROCS_Overlap>
1281.017

> <ROCS_Rank>
448                 

$$$$
ligprep_h3d.sdf:5015_1277
  -OEChem-08212117123D

 63 67  0     1  0  0  0  0  0999 V2000
  -19.3156   -5.2026  -32.9964 C   0  0  0  0  0  0  0  0  0  0  0  0
  -23.5706   -3.8982  -24.1701 C   0  0  0  0  0  0  0  0  0  0  0  0
  -25.7217   -4.7966  -24.8046 C   0  0  0  0  0  0  0  0  0  0  0  0
  -18.7355   -6.0724  -33.9196 C   0  0  0  0  0  0  0  0  0  0  0  0
  -23.7786   -4.3262  -22.8589 C   0  0  0  0  0  0  0  0  0  0  0  0
  -25.9297   -5.2247  -23.4935 C   0  0  0  0  0  0  0  0  0  0  0  0
  -21.4964   -5.6722  -33.9241 C   0  0  0  0  0  0  0  0  0  0  0  0
  -17.1242   -6.0852  -26.2009 C   0  0  0  0  0  0  0  0  0  0  0  0
  -17.0316   -3.7063  -25.7901 C   0  0  0  0  0  0  0  0  0  0  0  0
  -15.1590   -5.1097  -25.1895 C   0  0  0  0  0  0  0  0  0  0  0  0
  -20.6961   -5.0025  -32.9986 C   0  0  0  0  0  0  0  0  0  0  0  0
  -17.7176   -4.8245  -26.2642 C   0  0  0  0  0  0  0  0  0  0  0  0
  -24.5422   -4.1334  -25.1429 C   0  0  0  0  0  0  0  0  0  0  0  0
  -19.5358   -6.7421  -34.8452 C   0  0  0  0  0  0  0  0  0  0  0  0
  -24.9581   -4.9895  -22.5206 C   0  0  0  0  0  0  0  0  0  0  0  0
  -15.8449   -6.2279  -25.6635 C   0  0  0  0  0  0  0  0  0  0  0  0
  -15.7523   -3.8489  -25.2527 C   0  0  0  0  0  0  0  0  0  0  0  0
  -20.9162   -6.5420  -34.8475 C   0  0  0  0  0  0  0  0  0  0  0  0
  -22.2963   -4.7259  -31.0563 C   0  0  0  0  0  0  0  0  0  0  0  0
  -22.8207   -5.2630  -28.6922 C   0  0  0  0  0  0  0  0  0  0  0  0
  -19.9108   -5.6320  -27.3507 C   0  0  0  0  0  0  0  0  0  0  0  0
  -19.9665   -3.6388  -26.6875 C   0  0  0  0  0  0  0  0  0  0  0  0
  -20.7921   -4.0047  -29.1479 C   0  0  0  0  0  0  0  0  0  0  0  0
  -22.3270   -4.6922  -27.3667 C   0  0  1  0  0  0  0  0  0  0  0  0
  -20.8491   -4.4364  -27.6788 C   0  0  0  0  0  0  0  0  0  0  0  0
  -23.0579   -3.3994  -27.0095 C   0  0  0  0  0  0  0  0  0  0  0  0
  -21.3245   -4.0582  -31.9963 C   0  0  2  0  0  0  0  0  0  0  0  0
  -19.0030   -4.6807  -26.8047 N   0  0  0  0  0  0  0  0  0  0  0  0
  -21.9733   -4.6551  -29.7105 N   0  0  0  0  0  0  0  0  0  0  0  0
  -22.0230   -2.9331  -32.5865 N   0  0  0  0  0  0  0  0  0  0  0  0
  -24.3339   -3.7047  -26.4559 N   0  0  0  0  0  0  0  0  0  0  0  0
  -23.2984   -5.2921  -31.4962 O   0  0  0  0  0  0  0  0  0  0  0  0
  -18.9378   -7.5840  -35.7352 O   0  0  0  0  0  0  0  0  0  0  0  0
  -25.1579   -5.4005  -21.2615 F   0  0  0  0  0  0  0  0  0  0  0  0
  -15.2747   -7.4385  -25.6047 F   0  0  0  0  0  0  0  0  0  0  0  0
  -15.0929   -2.7748  -24.7993 F   0  0  0  0  0  0  0  0  0  0  0  0
  -22.0339   -7.4339  -36.0916 Br  0  0  0  0  0  0  0  0  0  0  0  0
  -18.6833   -4.6854  -32.2793 H   0  0  0  0  0  0  0  0  0  0  0  0
  -22.6476   -3.3826  -24.4228 H   0  0  0  0  0  0  0  0  0  0  0  0
  -26.4856   -4.9849  -25.5547 H   0  0  0  0  0  0  0  0  0  0  0  0
  -17.6592   -6.2233  -33.9118 H   0  0  0  0  0  0  0  0  0  0  0  0
  -23.0223   -4.1435  -22.1013 H   0  0  0  0  0  0  0  0  0  0  0  0
  -26.8480   -5.7409  -23.2294 H   0  0  0  0  0  0  0  0  0  0  0  0
  -22.5722   -5.5103  -33.9182 H   0  0  0  0  0  0  0  0  0  0  0  0
  -17.6494   -6.9629  -26.5683 H   0  0  0  0  0  0  0  0  0  0  0  0
  -17.4843   -2.7191  -25.8354 H   0  0  0  0  0  0  0  0  0  0  0  0
  -14.1624   -5.2212  -24.7726 H   0  0  0  0  0  0  0  0  0  0  0  0
  -22.6476   -6.3445  -28.7411 H   0  0  0  0  0  0  0  0  0  0  0  0
  -23.8794   -5.0752  -28.8971 H   0  0  0  0  0  0  0  0  0  0  0  0
  -20.2802   -6.3334  -26.5944 H   0  0  0  0  0  0  0  0  0  0  0  0
  -19.4968   -6.1853  -28.1980 H   0  0  0  0  0  0  0  0  0  0  0  0
  -19.5976   -2.6705  -27.0351 H   0  0  0  0  0  0  0  0  0  0  0  0
  -20.3597   -3.5516  -25.6692 H   0  0  0  0  0  0  0  0  0  0  0  0
  -20.9195   -2.9228  -29.2600 H   0  0  0  0  0  0  0  0  0  0  0  0
  -19.8852   -4.3195  -29.6717 H   0  0  0  0  0  0  0  0  0  0  0  0
  -22.4634   -5.4128  -26.5528 H   0  0  0  0  0  0  0  0  0  0  0  0
  -22.4415   -2.8705  -26.2847 H   0  0  0  0  0  0  0  0  0  0  0  0
  -23.1652   -2.8255  -27.9282 H   0  0  0  0  0  0  0  0  0  0  0  0
  -20.5347   -3.6367  -31.3648 H   0  0  0  0  0  0  0  0  0  0  0  0
  -21.9513   -2.9947  -33.5778 H   0  0  0  0  0  0  0  0  0  0  0  0
  -22.9788   -2.9679  -32.3090 H   0  0  0  0  0  0  0  0  0  0  0  0
  -25.1665   -3.6087  -27.0432 H   0  0  0  0  0  0  0  0  0  0  0  0
  -17.9793   -7.5988  -35.5890 H   0  0  0  0  0  0  0  0  0  0  0  0
  1  4  1  0  0  0  0
  1 11  2  0  0  0  0
  2  5  1  0  0  0  0
  2 13  2  0  0  0  0
  3  6  2  0  0  0  0
  3 13  1  0  0  0  0
  4 14  2  0  0  0  0
  5 15  2  0  0  0  0
  6 15  1  0  0  0  0
  7 11  1  0  0  0  0
  7 18  2  0  0  0  0
  8 12  2  0  0  0  0
  8 16  1  0  0  0  0
  9 12  1  0  0  0  0
  9 17  2  0  0  0  0
 10 16  2  0  0  0  0
 10 17  1  0  0  0  0
 11 27  1  0  0  0  0
 12 28  1  0  0  0  0
 13 31  1  0  0  0  0
 14 18  1  0  0  0  0
 14 33  1  0  0  0  0
 15 34  1  0  0  0  0
 16 35  1  0  0  0  0
 17 36  1  0  0  0  0
 18 37  1  0  0  0  0
 19 27  1  0  0  0  0
 19 29  1  0  0  0  0
 19 32  2  0  0  0  0
 20 24  1  0  0  0  0
 20 29  1  0  0  0  0
 21 25  1  0  0  0  0
 21 28  1  0  0  0  0
 22 25  1  0  0  0  0
 22 28  1  0  0  0  0
 23 25  1  0  0  0  0
 23 29  1  0  0  0  0
 24 25  1  0  0  0  0
 24 26  1  0  0  0  0
 26 31  1  0  0  0  0
 27 30  1  0  0  0  0
  1 38  1  0  0  0  0
  2 39  1  0  0  0  0
  3 40  1  0  0  0  0
  4 41  1  0  0  0  0
  5 42  1  0  0  0  0
  6 43  1  0  0  0  0
  7 44  1  0  0  0  0
  8 45  1  0  0  0  0
  9 46  1  0  0  0  0
 10 47  1  0  0  0  0
 20 48  1  0  0  0  0
 20 49  1  0  0  0  0
 21 50  1  0  0  0  0
 21 51  1  0  0  0  0
 22 52  1  0  0  0  0
 22 53  1  0  0  0  0
 23 54  1  0  0  0  0
 23 55  1  0  0  0  0
 24 56  1  0  0  0  0
 26 57  1  0  0  0  0
 26 58  1  0  0  0  0
 27 59  1  0  0  0  0
 30 60  1  0  0  0  0
 30 61  1  0  0  0  0
 31 62  1  0  0  0  0
 33 63  1  0  0  0  0
M  END
> <SMILES>
N[C@@H](C(=O)N1CC(CNc2ccc(cc2)F)C2(C1)CN(C2)c1cc(cc(c1)F)F)c1ccc(c(c1)Br)O

> <FORMATTED_ID>
H3D-009069

> <MOLFORMULA>
C27H26BrF3N4O2

> <Exact Mass>
574.12

> <XLogP>
3.96

> <TPSA_NOPS>
81.8

> <s_m_source_file>
ligprep_h3d.sdf

> <i_m_source_file_index>
5015

> <i_lp_mmshare_version>
55123

> <i_f3d_flags>
0

> <s_epik_input>
W2NIXTFjKEJyKWMoW09IXSlbY0hdW2NIXWMxW0NAQEhdKFtOSDJdKUMoPU8pTihbQ0gyXTIpW0NIMl1bQ0BIXShbQ0gyXVtOSF1jM1tjSF1bY0hdYyhGKVtjSF1bY0hdMylDMjRbQ0gyXU4oW0NIMl00KWM1W2NIXWMoRilbY0hdYyhGKVtjSF01

> <s_epik_cmdline>
J2VwaWtfcHl0aG9uJywgJy1waHQnLCAnMC41JywgJy1waCcsICc3LjUnLCAnLXRuJywgJzgnLCAnLW1hJywgJzUwMCcsICctaW1hZScsICc8aW5maWxlLm1hZT4nLCAnLW9tYWUnLCAnPG91dGZpbGUubWFlPic=

> <r_lp_tautomer_probability>
1

> <r_epik_Ionization_Penalty>
0.107111

> <r_epik_Ionization_Penalty_Charging>
0

> <r_epik_Ionization_Penalty_Neutral>
0.107111

> <r_epik_State_Penalty>
-0

> <r_epik_Charging_Adjusted_Penalty>
0

> <i_epik_Tot_Q>
0

> <i_epik_Tot_abs_Q>
0

> <s_lp_Force_Field>
S-OPLS

> <r_lp_Energy>
37.8335

> <b_lp_Chiralities_Consistent>
1

> <s_lp_Variant>
ligprep_h3d.sdf:5015-1

> <ROCS_ShapeQuery>
_7L13

> <ROCS_TanimotoCombo>
0.682 

> <ROCS_ShapeTanimoto>
0.626 

> <ROCS_ColorTanimoto>
0.056 

> <ROCS_RefTversky>
0.774 

> <ROCS_RefColorTversky>
0.122 

> <ROCS_RefTverskyCombo>
0.896 

> <ROCS_FitTversky>
0.766 

> <ROCS_FitColorTversky>
0.094 

> <ROCS_FitTverskyCombo>
0.860 

> <ROCS_ColorScore>
-1.120

> <ROCS_Overlap>
1286.018

> <ROCS_Rank>
449                 

$$$$
ligprep_h3d.sdf:636_1866
  -OEChem-08212117123D

 63 67  0     1  0  0  0  0  0999 V2000
  -17.1546   -7.0402  -27.1441 C   0  0  0  0  0  0  0  0  0  0  0  0
  -16.1483   -6.2880  -26.5380 C   0  0  0  0  0  0  0  0  0  0  0  0
  -18.4579   -6.5461  -27.1985 C   0  0  0  0  0  0  0  0  0  0  0  0
  -16.4454   -5.0419  -25.9862 C   0  0  0  0  0  0  0  0  0  0  0  0
  -20.7271   -4.5824  -25.4986 C   0  0  0  0  0  0  0  0  0  0  0  0
  -22.8702   -3.9253  -28.9980 C   0  0  0  0  0  0  0  0  0  0  0  0
  -20.8366   -4.6069  -27.9136 C   0  0  0  0  0  0  0  0  0  0  0  0
  -18.7550   -5.3000  -26.6466 C   0  0  0  0  0  0  0  0  0  0  0  0
  -20.1259   -4.8240  -26.7255 C   0  0  0  0  0  0  0  0  0  0  0  0
  -20.9852   -4.6180  -30.3363 C   0  0  0  0  0  0  0  0  0  0  0  0
  -22.2937   -4.1591  -30.2489 C   0  0  0  0  0  0  0  0  0  0  0  0
  -20.2565   -4.8420  -29.1717 C   0  0  0  0  0  0  0  0  0  0  0  0
  -22.1647   -4.1410  -27.8173 C   0  0  0  0  0  0  0  0  0  0  0  0
  -17.7487   -4.5478  -26.0405 C   0  0  0  0  0  0  0  0  0  0  0  0
  -22.0302   -4.1279  -25.5050 C   0  0  0  0  0  0  0  0  0  0  0  0
  -19.6730   -3.8318  -32.3950 C   0  0  0  0  0  0  0  0  0  0  0  0
  -20.5116   -6.0850  -32.2080 C   0  0  0  0  0  0  0  0  0  0  0  0
  -19.1422   -4.0957  -33.5934 C   0  0  0  0  0  0  0  0  0  0  0  0
  -20.3898   -4.8599  -31.6656 C   0  0  0  0  0  0  0  0  0  0  0  0
  -19.9244   -6.3957  -33.5485 C   0  0  0  0  0  0  0  0  0  0  0  0
  -22.7182   -3.8558  -24.2546 C   0  0  0  0  0  0  0  0  0  0  0  0
  -26.3884   -4.1247  -23.3437 C   0  0  0  0  0  0  0  0  0  0  0  0
  -25.2731   -6.0077  -22.2585 C   0  0  0  0  0  0  0  0  0  0  0  0
  -24.9328   -3.7799  -23.0847 C   0  0  1  0  0  0  0  0  0  0  0  0
  -24.5887   -4.6992  -21.9221 C   0  0  2  0  0  0  0  0  0  0  0  0
  -23.1215   -3.9026  -31.4680 C   0  0  0  0  0  0  0  0  0  0  0  0
  -18.8497   -5.3374  -29.3530 C   0  0  0  0  0  0  0  0  0  0  0  0
  -18.6409   -5.5346  -35.4875 C   0  0  0  0  0  0  0  0  0  0  0  0
  -22.7507   -3.9057  -26.6282 N   0  0  0  0  0  0  0  0  0  0  0  0
  -19.2527   -5.3433  -34.1780 N   0  0  0  0  0  0  0  0  0  0  0  0
  -24.1075   -4.0314  -24.2409 N   0  0  0  0  0  0  0  0  0  0  0  0
  -26.4679   -5.6019  -23.0740 N   0  3  0  0  0  0  0  0  0  0  0  0
  -20.0622   -7.5292  -34.0061 O   0  0  0  0  0  0  0  0  0  0  0  0
  -22.0859   -3.4646  -23.2566 O   0  0  0  0  0  0  0  0  0  0  0  0
  -23.2522   -4.8680  -21.8108 F   0  0  0  0  0  0  0  0  0  0  0  0
  -18.0595   -2.9971  -25.3402 Cl  0  0  0  0  0  0  0  0  0  0  0  0
  -16.9230   -8.0104  -27.5737 H   0  0  0  0  0  0  0  0  0  0  0  0
  -15.1336   -6.6729  -26.4959 H   0  0  0  0  0  0  0  0  0  0  0  0
  -19.2297   -7.1462  -27.6749 H   0  0  0  0  0  0  0  0  0  0  0  0
  -15.6490   -4.4690  -25.5176 H   0  0  0  0  0  0  0  0  0  0  0  0
  -20.2009   -4.7417  -24.5615 H   0  0  0  0  0  0  0  0  0  0  0  0
  -23.8970   -3.5656  -28.9447 H   0  0  0  0  0  0  0  0  0  0  0  0
  -19.5748   -2.8458  -31.9518 H   0  0  0  0  0  0  0  0  0  0  0  0
  -21.0360   -6.8949  -31.7073 H   0  0  0  0  0  0  0  0  0  0  0  0
  -18.6033   -3.3382  -34.1517 H   0  0  0  0  0  0  0  0  0  0  0  0
  -27.0928   -3.6138  -22.6783 H   0  0  0  0  0  0  0  0  0  0  0  0
  -26.6825   -3.9839  -24.3915 H   0  0  0  0  0  0  0  0  0  0  0  0
  -24.6626   -6.6815  -22.8656 H   0  0  0  0  0  0  0  0  0  0  0  0
  -25.6609   -6.5145  -21.3693 H   0  0  0  0  0  0  0  0  0  0  0  0
  -24.8236   -2.7409  -22.8016 H   0  0  0  0  0  0  0  0  0  0  0  0
  -24.9508   -4.2851  -20.9455 H   0  0  0  0  0  0  0  0  0  0  0  0
  -22.9922   -2.8671  -31.8012 H   0  0  0  0  0  0  0  0  0  0  0  0
  -22.8361   -4.5734  -32.2865 H   0  0  0  0  0  0  0  0  0  0  0  0
  -24.1849   -4.0767  -31.2660 H   0  0  0  0  0  0  0  0  0  0  0  0
  -18.8410   -6.4303  -29.3724 H   0  0  0  0  0  0  0  0  0  0  0  0
  -18.4236   -4.9604  -30.2871 H   0  0  0  0  0  0  0  0  0  0  0  0
  -18.2086   -4.9897  -28.5378 H   0  0  0  0  0  0  0  0  0  0  0  0
  -17.6024   -5.8747  -35.3615 H   0  0  0  0  0  0  0  0  0  0  0  0
  -19.2084   -6.2904  -36.0503 H   0  0  0  0  0  0  0  0  0  0  0  0
  -18.6506   -4.5829  -36.0391 H   0  0  0  0  0  0  0  0  0  0  0  0
  -24.5824   -4.2912  -25.0992 H   0  0  0  0  0  0  0  0  0  0  0  0
  -27.3343   -5.8260  -22.5650 H   0  0  0  0  0  0  0  0  0  0  0  0
  -26.5070   -6.1255  -23.9595 H   0  0  0  0  0  0  0  0  0  0  0  0
  1  2  2  0  0  0  0
  1  3  1  0  0  0  0
  2  4  1  0  0  0  0
  3  8  2  0  0  0  0
  4 14  2  0  0  0  0
  5  9  2  0  0  0  0
  5 15  1  0  0  0  0
  6 11  1  0  0  0  0
  6 13  2  0  0  0  0
  7  9  1  0  0  0  0
  7 12  2  0  0  0  0
  7 13  1  0  0  0  0
  8  9  1  0  0  0  0
  8 14  1  0  0  0  0
 10 11  2  0  0  0  0
 10 12  1  0  0  0  0
 10 19  1  0  0  0  0
 11 26  1  0  0  0  0
 12 27  1  0  0  0  0
 13 29  1  0  0  0  0
 14 36  1  0  0  0  0
 15 21  1  0  0  0  0
 15 29  2  0  0  0  0
 16 18  2  0  0  0  0
 16 19  1  0  0  0  0
 17 19  2  0  0  0  0
 17 20  1  0  0  0  0
 18 30  1  0  0  0  0
 20 30  1  0  0  0  0
 20 33  2  0  0  0  0
 21 31  1  0  0  0  0
 21 34  2  0  0  0  0
 22 24  1  0  0  0  0
 22 32  1  0  0  0  0
 23 25  1  0  0  0  0
 23 32  1  0  0  0  0
 24 25  1  0  0  0  0
 24 31  1  0  0  0  0
 25 35  1  0  0  0  0
 28 30  1  0  0  0  0
  1 37  1  0  0  0  0
  2 38  1  0  0  0  0
  3 39  1  0  0  0  0
  4 40  1  0  0  0  0
  5 41  1  0  0  0  0
  6 42  1  0  0  0  0
 16 43  1  0  0  0  0
 17 44  1  0  0  0  0
 18 45  1  0  0  0  0
 22 46  1  0  0  0  0
 22 47  1  0  0  0  0
 23 48  1  0  0  0  0
 23 49  1  0  0  0  0
 24 50  1  0  0  0  0
 25 51  1  0  0  0  0
 26 52  1  0  0  0  0
 26 53  1  0  0  0  0
 26 54  1  0  0  0  0
 27 55  1  0  0  0  0
 27 56  1  0  0  0  0
 27 57  1  0  0  0  0
 28 58  1  0  0  0  0
 28 59  1  0  0  0  0
 28 60  1  0  0  0  0
 31 61  1  0  0  0  0
 32 62  1  0  0  0  0
 32 63  1  0  0  0  0
M  CHG  1  32   1
M  END
> <SMILES>
CN1C=CC(=CC1=O)c1c(cc2nc(cc(c2c1C)-c1ccccc1Cl)C(=O)N[C@H]1CNC[C@H]1F)C

> <FORMATTED_ID>
H3D-004606

> <MOLFORMULA>
C28H26ClFN4O2

> <Exact Mass>
504.17

> <XLogP>
4.31

> <TPSA_NOPS>
74.3

> <s_m_source_file>
ligprep_h3d.sdf

> <i_m_source_file_index>
636

> <i_lp_mmshare_version>
55123

> <i_f3d_flags>
0

> <s_epik_input>
W0NIM11uMVtjSF1bY0hdYyhbY0hdYzE9TyktYyhjKFtjSF0yKVtDSDNdKWMoW0NIM10pYyhjMjMpYygtYzRbY0hdW2NIXVtjSF1bY0hdYzRDbClbY0hdYyhuMylDKD1PKVtOSF1bQ0BIXTVbQ0gyXVtOSF1bQ0gyXVtDQEhdNUY=

> <s_epik_cmdline>
J2VwaWtfcHl0aG9uJywgJy1waHQnLCAnMC41JywgJy1waCcsICc3LjUnLCAnLXRuJywgJzgnLCAnLW1hJywgJzUwMCcsICctaW1hZScsICc8aW5maWxlLm1hZT4nLCAnLW9tYWUnLCAnPG91dGZpbGUubWFlPic=

> <r_lp_tautomer_probability>
1

> <r_epik_Ionization_Penalty>
0.0139658

> <r_epik_Ionization_Penalty_Charging>
0.0139025

> <r_epik_Ionization_Penalty_Neutral>
6.33146e-05

> <r_epik_State_Penalty>
0.0108452

> <r_epik_Charging_Adjusted_Penalty>
0.0247477

> <i_epik_Tot_Q>
1

> <i_epik_Tot_abs_Q>
1

> <s_lp_Force_Field>
S-OPLS

> <r_lp_Energy>
91.908

> <b_lp_Chiralities_Consistent>
1

> <s_lp_Variant>
ligprep_h3d.sdf:636-1

> <ROCS_ShapeQuery>
_7L13

> <ROCS_TanimotoCombo>
0.745 

> <ROCS_ShapeTanimoto>
0.630 

> <ROCS_ColorTanimoto>
0.115 

> <ROCS_RefTversky>
0.774 

> <ROCS_RefColorTversky>
0.227 

> <ROCS_RefTverskyCombo>
1.001 

> <ROCS_FitTversky>
0.772 

> <ROCS_FitColorTversky>
0.189 

> <ROCS_FitTverskyCombo>
0.961 

> <ROCS_ColorScore>
-2.065

> <ROCS_Overlap>
1285.361

> <ROCS_Rank>
450                 

$$$$
ligprep_h3d.sdf:4688_1830
  -OEChem-08212117123D

 61 65  0     1  0  0  0  0  0999 V2000
  -15.6617   -4.6237  -25.6859 C   0  0  0  0  0  0  0  0  0  0  0  0
  -26.3809   -4.9267  -23.0758 C   0  0  0  0  0  0  0  0  0  0  0  0
  -16.4880   -5.7114  -25.4039 C   0  0  0  0  0  0  0  0  0  0  0  0
  -16.1661   -3.5275  -26.3857 C   0  0  0  0  0  0  0  0  0  0  0  0
  -26.1485   -4.9709  -24.4505 C   0  0  0  0  0  0  0  0  0  0  0  0
  -25.3701   -4.5076  -22.2107 C   0  0  0  0  0  0  0  0  0  0  0  0
  -21.5638   -4.9033  -34.5606 C   0  0  0  0  0  0  0  0  0  0  0  0
  -19.8937   -5.5234  -32.9285 C   0  0  0  0  0  0  0  0  0  0  0  0
  -17.8188   -5.7031  -25.8218 C   0  0  0  0  0  0  0  0  0  0  0  0
  -17.4968   -3.5191  -26.8036 C   0  0  0  0  0  0  0  0  0  0  0  0
  -24.9053   -4.5962  -24.9600 C   0  0  0  0  0  0  0  0  0  0  0  0
  -24.1269   -4.1328  -22.7203 C   0  0  0  0  0  0  0  0  0  0  0  0
  -20.5644   -4.7328  -35.5185 C   0  0  0  0  0  0  0  0  0  0  0  0
  -18.8943   -5.3529  -33.8865 C   0  0  0  0  0  0  0  0  0  0  0  0
  -21.2285   -5.2986  -33.2655 C   0  0  0  0  0  0  0  0  0  0  0  0
  -18.3232   -4.6069  -26.5217 C   0  0  0  0  0  0  0  0  0  0  0  0
  -23.8945   -4.1772  -24.0949 C   0  0  0  0  0  0  0  0  0  0  0  0
  -19.2296   -4.9575  -35.1815 C   0  0  0  0  0  0  0  0  0  0  0  0
  -22.5814   -4.2171  -31.4692 C   0  0  0  0  0  0  0  0  0  0  0  0
  -20.7242   -5.2827  -26.2312 C   0  0  0  0  0  0  0  0  0  0  0  0
  -20.1231   -3.8469  -28.0927 C   0  0  0  0  0  0  0  0  0  0  0  0
  -21.8620   -5.3637  -29.2605 C   0  0  0  0  0  0  0  0  0  0  0  0
  -22.5122   -3.3351  -29.0631 C   0  0  0  0  0  0  0  0  0  0  0  0
  -22.0124   -4.6416  -26.7782 C   0  0  2  0  0  0  0  0  0  0  0  0
  -21.6038   -4.2504  -28.2028 C   0  0  0  0  0  0  0  0  0  0  0  0
  -22.3038   -5.4828  -32.2349 C   0  0  0  0  0  0  0  0  0  0  0  0
  -22.4161   -3.4178  -25.9559 C   0  0  0  0  0  0  0  0  0  0  0  0
  -19.6391   -4.5983  -26.9350 N   0  0  3  0  0  0  0  0  0  0  0  0
  -22.3346   -4.3031  -30.1278 N   0  0  0  0  0  0  0  0  0  0  0  0
  -22.6493   -3.8017  -24.6049 N   0  0  0  0  0  0  0  0  0  0  0  0
  -22.9898   -3.2030  -32.0330 O   0  0  0  0  0  0  0  0  0  0  0  0
  -18.2547   -4.7923  -36.1167 O   0  0  0  0  0  0  0  0  0  0  0  0
  -14.6253   -4.6304  -25.3605 H   0  0  0  0  0  0  0  0  0  0  0  0
  -27.3490   -5.2187  -22.6791 H   0  0  0  0  0  0  0  0  0  0  0  0
  -16.0952   -6.5647  -24.8592 H   0  0  0  0  0  0  0  0  0  0  0  0
  -15.5223   -2.6805  -26.6052 H   0  0  0  0  0  0  0  0  0  0  0  0
  -26.9354   -5.2973  -25.1238 H   0  0  0  0  0  0  0  0  0  0  0  0
  -25.5513   -4.4732  -21.1402 H   0  0  0  0  0  0  0  0  0  0  0  0
  -22.6010   -4.7259  -34.8319 H   0  0  0  0  0  0  0  0  0  0  0  0
  -19.6232   -5.8315  -31.9218 H   0  0  0  0  0  0  0  0  0  0  0  0
  -18.4544   -6.5557  -25.5972 H   0  0  0  0  0  0  0  0  0  0  0  0
  -17.8789   -2.6593  -27.3481 H   0  0  0  0  0  0  0  0  0  0  0  0
  -24.7343   -4.6344  -26.0327 H   0  0  0  0  0  0  0  0  0  0  0  0
  -23.3468   -3.8077  -22.0365 H   0  0  0  0  0  0  0  0  0  0  0  0
  -20.8319   -4.4249  -36.5258 H   0  0  0  0  0  0  0  0  0  0  0  0
  -17.8566   -5.5298  -33.6178 H   0  0  0  0  0  0  0  0  0  0  0  0
  -20.6331   -5.1853  -25.1441 H   0  0  0  0  0  0  0  0  0  0  0  0
  -20.7063   -6.3490  -26.4887 H   0  0  0  0  0  0  0  0  0  0  0  0
  -19.5614   -4.0843  -29.0035 H   0  0  0  0  0  0  0  0  0  0  0  0
  -20.0203   -2.7745  -27.8921 H   0  0  0  0  0  0  0  0  0  0  0  0
  -20.9795   -5.8920  -29.6303 H   0  0  0  0  0  0  0  0  0  0  0  0
  -22.6525   -6.0833  -29.0253 H   0  0  0  0  0  0  0  0  0  0  0  0
  -23.5575   -3.2587  -28.7497 H   0  0  0  0  0  0  0  0  0  0  0  0
  -22.1120   -2.3440  -29.2907 H   0  0  0  0  0  0  0  0  0  0  0  0
  -22.8391   -5.3606  -26.7665 H   0  0  0  0  0  0  0  0  0  0  0  0
  -23.2286   -5.8129  -32.7133 H   0  0  0  0  0  0  0  0  0  0  0  0
  -22.0269   -6.2645  -31.5246 H   0  0  0  0  0  0  0  0  0  0  0  0
  -21.5961   -2.7047  -26.0169 H   0  0  0  0  0  0  0  0  0  0  0  0
  -23.3228   -3.0147  -26.4030 H   0  0  0  0  0  0  0  0  0  0  0  0
  -21.8646   -3.8108  -23.9478 H   0  0  0  0  0  0  0  0  0  0  0  0
  -17.3843   -4.9846  -35.7329 H   0  0  0  0  0  0  0  0  0  0  0  0
  1  3  2  0  0  0  0
  1  4  1  0  0  0  0
  2  5  2  0  0  0  0
  2  6  1  0  0  0  0
  3  9  1  0  0  0  0
  4 10  2  0  0  0  0
  5 11  1  0  0  0  0
  6 12  2  0  0  0  0
  7 13  1  0  0  0  0
  7 15  2  0  0  0  0
  8 14  2  0  0  0  0
  8 15  1  0  0  0  0
  9 16  2  0  0  0  0
 10 16  1  0  0  0  0
 11 17  2  0  0  0  0
 12 17  1  0  0  0  0
 13 18  2  0  0  0  0
 14 18  1  0  0  0  0
 15 26  1  0  0  0  0
 16 28  1  0  0  0  0
 17 30  1  0  0  0  0
 18 32  1  0  0  0  0
 19 26  1  0  0  0  0
 19 29  1  0  0  0  0
 19 31  2  0  0  0  0
 20 24  1  0  0  0  0
 20 28  1  0  0  0  0
 21 25  1  0  0  0  0
 21 28  1  0  0  0  0
 22 25  1  0  0  0  0
 22 29  1  0  0  0  0
 23 25  1  0  0  0  0
 23 29  1  0  0  0  0
 24 25  1  0  0  0  0
 24 27  1  0  0  0  0
 27 30  1  0  0  0  0
  1 33  1  0  0  0  0
  2 34  1  0  0  0  0
  3 35  1  0  0  0  0
  4 36  1  0  0  0  0
  5 37  1  0  0  0  0
  6 38  1  0  0  0  0
  7 39  1  0  0  0  0
  8 40  1  0  0  0  0
  9 41  1  0  0  0  0
 10 42  1  0  0  0  0
 11 43  1  0  0  0  0
 12 44  1  0  0  0  0
 13 45  1  0  0  0  0
 14 46  1  0  0  0  0
 20 47  1  0  0  0  0
 20 48  1  0  0  0  0
 21 49  1  0  0  0  0
 21 50  1  0  0  0  0
 22 51  1  0  0  0  0
 22 52  1  0  0  0  0
 23 53  1  0  0  0  0
 23 54  1  0  0  0  0
 24 55  1  0  0  0  0
 26 56  1  0  0  0  0
 26 57  1  0  0  0  0
 27 58  1  0  0  0  0
 27 59  1  0  0  0  0
 30 60  1  0  0  0  0
 32 61  1  0  0  0  0
M  END
> <SMILES>
Oc1ccc(cc1)CC(=O)N1CC2(C1)CN(CC2CNc1ccccc1)c1ccccc1

> <FORMATTED_ID>
H3D-006125

> <MOLFORMULA>
C27H29N3O2

> <Exact Mass>
427.23

> <XLogP>
3.82

> <TPSA_NOPS>
55.8

> <s_m_source_file>
ligprep_h3d.sdf

> <i_m_source_file_index>
4688

> <i_lp_mmshare_version>
55123

> <i_f3d_flags>
0

> <s_epik_input>
W09IXWMxW2NIXVtjSF1jKFtjSF1bY0hdMSlbQ0gyXUMoPU8pTihbQ0gyXTIpW0NIMl1DMjNbQ0gyXU4oYzRbY0hdW2NIXVtjSF1bY0hdW2NIXTQpW0NIMl1bQ0BIXTNbQ0gyXVtOSF1jNVtjSF1bY0hdW2NIXVtjSF1bY0hdNQ==

> <s_epik_cmdline>
J2VwaWtfcHl0aG9uJywgJy1waHQnLCAnMC41JywgJy1waCcsICc3LjUnLCAnLXRuJywgJzgnLCAnLW1hJywgJzUwMCcsICctaW1hZScsICc8aW5maWxlLm1hZT4nLCAnLW9tYWUnLCAnPG91dGZpbGUubWFlPic=

> <r_lp_tautomer_probability>
1

> <r_epik_Ionization_Penalty>
0.00546819

> <r_epik_Ionization_Penalty_Charging>
0

> <r_epik_Ionization_Penalty_Neutral>
0.00546819

> <r_epik_State_Penalty>
-0

> <r_epik_Charging_Adjusted_Penalty>
0

> <i_epik_Tot_Q>
0

> <i_epik_Tot_abs_Q>
0

> <s_lp_Force_Field>
S-OPLS

> <r_lp_Energy>
8.13273

> <b_lp_Chiralities_Consistent>
1

> <s_lp_Variant>
ligprep_h3d.sdf:4688-1

> <ROCS_ShapeQuery>
_7L13

> <ROCS_TanimotoCombo>
0.770 

> <ROCS_ShapeTanimoto>
0.693 

> <ROCS_ColorTanimoto>
0.077 

> <ROCS_RefTversky>
0.774 

> <ROCS_RefColorTversky>
0.143 

> <ROCS_RefTverskyCombo>
0.917 

> <ROCS_FitTversky>
0.869 

> <ROCS_FitColorTversky>
0.143 

> <ROCS_FitTverskyCombo>
1.012 

> <ROCS_ColorScore>
-1.284

> <ROCS_Overlap>
1277.360

> <ROCS_Rank>
451                 

$$$$
ligprep_h3d.sdf:1384_1312
  -OEChem-08212117123D

 70 74  0     1  0  0  0  0  0999 V2000
  -16.7633   -4.7668  -26.8597 C   0  0  0  0  0  0  0  0  0  0  0  0
  -23.3354   -4.2251  -28.6656 C   0  0  0  0  0  0  0  0  0  0  0  0
  -20.7999   -4.4419  -25.3801 C   0  0  0  0  0  0  0  0  0  0  0  0
  -17.1860   -6.1032  -26.7279 C   0  0  0  0  0  0  0  0  0  0  0  0
  -21.1359   -4.5925  -27.7695 C   0  0  0  0  0  0  0  0  0  0  0  0
  -22.8557   -4.4420  -29.9597 C   0  0  0  0  0  0  0  0  0  0  0  0
  -20.6531   -4.8106  -29.0710 C   0  0  0  0  0  0  0  0  0  0  0  0
  -22.4981   -4.2945  -27.5555 C   0  0  0  0  0  0  0  0  0  0  0  0
  -20.2925   -4.6623  -26.6524 C   0  0  0  0  0  0  0  0  0  0  0  0
  -21.5129   -4.7351  -30.1630 C   0  0  0  0  0  0  0  0  0  0  0  0
  -22.1458   -4.1568  -25.2703 C   0  0  0  0  0  0  0  0  0  0  0  0
  -17.9262   -4.0361  -26.8468 C   0  0  0  0  0  0  0  0  0  0  0  0
  -22.7410   -3.9164  -23.9669 C   0  0  0  0  0  0  0  0  0  0  0  0
  -19.0977   -5.6219  -35.2020 C   0  0  0  0  0  0  0  0  0  0  0  0
  -20.1258   -4.0654  -33.5713 C   0  0  0  0  0  0  0  0  0  0  0  0
  -20.0255   -6.5155  -33.0740 C   0  0  0  0  0  0  0  0  0  0  0  0
  -18.1499   -8.8609  -36.6668 C   0  0  0  0  0  0  0  0  0  0  0  0
  -21.1613   -3.8846  -32.4621 C   0  0  0  0  0  0  0  0  0  0  0  0
  -21.0666   -6.3302  -31.9720 C   0  0  0  0  0  0  0  0  0  0  0  0
  -17.8103   -7.4111  -36.3478 C   0  0  0  0  0  0  0  0  0  0  0  0
  -20.1870   -7.7268  -36.1249 C   0  0  0  0  0  0  0  0  0  0  0  0
  -20.1883   -5.4675  -34.1725 C   0  0  0  0  0  0  0  0  0  0  0  0
  -19.6224   -8.7913  -37.0579 C   0  0  1  0  0  0  0  0  0  0  0  0
  -23.8130   -4.3528  -31.1039 C   0  0  0  0  0  0  0  0  0  0  0  0
  -19.2186   -5.1326  -29.3778 C   0  0  0  0  0  0  0  0  0  0  0  0
  -18.1460   -2.5800  -26.9487 C   0  0  0  0  0  0  0  0  0  0  0  0
  -24.8260   -4.0671  -22.5810 C   0  0  0  0  0  0  0  0  0  0  0  0
  -18.5137   -6.2175  -26.6376 N   0  0  0  0  0  0  0  0  0  0  0  0
  -22.9933   -4.0801  -26.3219 N   0  0  0  0  0  0  0  0  0  0  0  0
  -18.9353   -4.9437  -26.7128 N   0  0  0  0  0  0  0  0  0  0  0  0
  -21.0387   -4.9517  -31.4625 N   0  0  0  0  0  0  0  0  0  0  0  0
  -19.0534   -6.8455  -35.8458 N   0  0  0  0  0  0  0  0  0  0  0  0
  -24.0877   -4.2657  -23.8075 N   0  0  0  0  0  0  0  0  0  0  0  0
  -22.0728   -3.4025  -23.0513 O   0  0  0  0  0  0  0  0  0  0  0  0
  -18.3202   -4.6939  -35.4310 O   0  0  0  0  0  0  0  0  0  0  0  0
  -19.7519   -8.3464  -38.4039 O   0  0  0  0  0  0  0  0  0  0  0  0
  -15.7556   -4.3885  -26.9509 H   0  0  0  0  0  0  0  0  0  0  0  0
  -24.3905   -3.9947  -28.5217 H   0  0  0  0  0  0  0  0  0  0  0  0
  -20.1678   -4.4889  -24.4978 H   0  0  0  0  0  0  0  0  0  0  0  0
  -16.5817   -6.9983  -26.6937 H   0  0  0  0  0  0  0  0  0  0  0  0
  -20.3254   -3.3398  -34.3591 H   0  0  0  0  0  0  0  0  0  0  0  0
  -19.1339   -3.8610  -33.1742 H   0  0  0  0  0  0  0  0  0  0  0  0
  -19.0281   -6.4617  -32.6390 H   0  0  0  0  0  0  0  0  0  0  0  0
  -20.1437   -7.5073  -33.5123 H   0  0  0  0  0  0  0  0  0  0  0  0
  -17.5138   -9.2536  -37.4655 H   0  0  0  0  0  0  0  0  0  0  0  0
  -18.0249   -9.4776  -35.7693 H   0  0  0  0  0  0  0  0  0  0  0  0
  -21.0295   -2.9077  -31.9804 H   0  0  0  0  0  0  0  0  0  0  0  0
  -22.1620   -3.8971  -32.9111 H   0  0  0  0  0  0  0  0  0  0  0  0
  -22.0567   -6.5582  -32.3874 H   0  0  0  0  0  0  0  0  0  0  0  0
  -20.8890   -7.0362  -31.1511 H   0  0  0  0  0  0  0  0  0  0  0  0
  -17.0090   -7.3106  -35.6096 H   0  0  0  0  0  0  0  0  0  0  0  0
  -17.5302   -6.8541  -37.2488 H   0  0  0  0  0  0  0  0  0  0  0  0
  -21.0111   -7.1553  -36.5608 H   0  0  0  0  0  0  0  0  0  0  0  0
  -20.5017   -8.1604  -35.1698 H   0  0  0  0  0  0  0  0  0  0  0  0
  -21.1209   -5.6089  -34.6817 H   0  0  0  0  0  0  0  0  0  0  0  0
  -20.1287   -9.7529  -36.9573 H   0  0  0  0  0  0  0  0  0  0  0  0
  -23.8515   -3.3266  -31.4864 H   0  0  0  0  0  0  0  0  0  0  0  0
  -23.5154   -5.0206  -31.9212 H   0  0  0  0  0  0  0  0  0  0  0  0
  -24.8231   -4.6512  -30.7983 H   0  0  0  0  0  0  0  0  0  0  0  0
  -19.0694   -6.2156  -29.3617 H   0  0  0  0  0  0  0  0  0  0  0  0
  -18.9368   -4.7485  -30.3625 H   0  0  0  0  0  0  0  0  0  0  0  0
  -18.5517   -4.6699  -28.6441 H   0  0  0  0  0  0  0  0  0  0  0  0
  -18.2674   -2.2692  -27.9993 H   0  0  0  0  0  0  0  0  0  0  0  0
  -19.0459   -2.2578  -26.3977 H   0  0  0  0  0  0  0  0  0  0  0  0
  -17.3061   -2.0041  -26.5237 H   0  0  0  0  0  0  0  0  0  0  0  0
  -24.7913   -4.9868  -21.9786 H   0  0  0  0  0  0  0  0  0  0  0  0
  -24.3766   -3.2395  -22.0126 H   0  0  0  0  0  0  0  0  0  0  0  0
  -25.8721   -3.8235  -22.8183 H   0  0  0  0  0  0  0  0  0  0  0  0
  -24.6043   -4.6230  -24.6045 H   0  0  0  0  0  0  0  0  0  0  0  0
  -20.7023   -8.3206  -38.5991 H   0  0  0  0  0  0  0  0  0  0  0  0
  1  4  1  0  0  0  0
  1 12  2  0  0  0  0
  2  6  2  0  0  0  0
  2  8  1  0  0  0  0
  3  9  1  0  0  0  0
  3 11  2  0  0  0  0
  4 28  2  0  0  0  0
  5  7  1  0  0  0  0
  5  8  1  0  0  0  0
  5  9  2  0  0  0  0
  6 10  1  0  0  0  0
  6 24  1  0  0  0  0
  7 10  2  0  0  0  0
  7 25  1  0  0  0  0
  8 29  2  0  0  0  0
  9 30  1  0  0  0  0
 10 31  1  0  0  0  0
 11 13  1  0  0  0  0
 11 29  1  0  0  0  0
 12 26  1  0  0  0  0
 12 30  1  0  0  0  0
 13 33  1  0  0  0  0
 13 34  2  0  0  0  0
 14 22  1  0  0  0  0
 14 32  1  0  0  0  0
 14 35  2  0  0  0  0
 15 18  1  0  0  0  0
 15 22  1  0  0  0  0
 16 19  1  0  0  0  0
 16 22  1  0  0  0  0
 17 20  1  0  0  0  0
 17 23  1  0  0  0  0
 18 31  1  0  0  0  0
 19 31  1  0  0  0  0
 20 32  1  0  0  0  0
 21 23  1  0  0  0  0
 21 32  1  0  0  0  0
 23 36  1  0  0  0  0
 27 33  1  0  0  0  0
 28 30  1  0  0  0  0
  1 37  1  0  0  0  0
  2 38  1  0  0  0  0
  3 39  1  0  0  0  0
  4 40  1  0  0  0  0
 15 41  1  0  0  0  0
 15 42  1  0  0  0  0
 16 43  1  0  0  0  0
 16 44  1  0  0  0  0
 17 45  1  0  0  0  0
 17 46  1  0  0  0  0
 18 47  1  0  0  0  0
 18 48  1  0  0  0  0
 19 49  1  0  0  0  0
 19 50  1  0  0  0  0
 20 51  1  0  0  0  0
 20 52  1  0  0  0  0
 21 53  1  0  0  0  0
 21 54  1  0  0  0  0
 22 55  1  0  0  0  0
 23 56  1  0  0  0  0
 24 57  1  0  0  0  0
 24 58  1  0  0  0  0
 24 59  1  0  0  0  0
 25 60  1  0  0  0  0
 25 61  1  0  0  0  0
 25 62  1  0  0  0  0
 26 63  1  0  0  0  0
 26 64  1  0  0  0  0
 26 65  1  0  0  0  0
 27 66  1  0  0  0  0
 27 67  1  0  0  0  0
 27 68  1  0  0  0  0
 33 69  1  0  0  0  0
 36 70  1  0  0  0  0
M  END
> <SMILES>
CNC(=O)c1cc(c2c(c(c(cc2n1)C)N1CCC(CC1)C(=O)N1CC[C@H](O)C1)C)-n1nccc1C

> <FORMATTED_ID>
H3D-009308

> <MOLFORMULA>
C27H34N6O3

> <Exact Mass>
490.27

> <XLogP>
2.16

> <TPSA_NOPS>
103.6

> <s_m_source_file>
ligprep_h3d.sdf

> <i_m_source_file_index>
1384

> <i_lp_mmshare_version>
55123

> <i_f3d_flags>
0

> <s_epik_input>
W0NIM11jMVtjSF1bY0hdbm4xLWMyW2NIXWMoQyg9TylbTkhdW0NIM10pbmMoYzIzKVtjSF1jKFtDSDNdKWMoYzNbQ0gzXSlONFtDSDJdW0NIMl1bQ0hdKFtDSDJdW0NIMl00KUMoPU8pTjVbQ0gyXVtDSDJdW0NASF0oW09IXSlbQ0gyXTU=

> <s_epik_cmdline>
J2VwaWtfcHl0aG9uJywgJy1waHQnLCAnMC41JywgJy1waCcsICc3LjUnLCAnLXRuJywgJzgnLCAnLW1hJywgJzUwMCcsICctaW1hZScsICc8aW5maWxlLm1hZT4nLCAnLW9tYWUnLCAnPG91dGZpbGUubWFlPic=

> <r_lp_tautomer_probability>
1

> <r_epik_Ionization_Penalty>
4.83095e-05

> <r_epik_Ionization_Penalty_Charging>
0

> <r_epik_Ionization_Penalty_Neutral>
4.83095e-05

> <r_epik_State_Penalty>
-0

> <r_epik_Charging_Adjusted_Penalty>
0

> <i_epik_Tot_Q>
0

> <i_epik_Tot_abs_Q>
0

> <s_lp_Force_Field>
S-OPLS

> <r_lp_Energy>
75.9279

> <b_lp_Chiralities_Consistent>
1

> <s_lp_Variant>
ligprep_h3d.sdf:1384-1

> <ROCS_ShapeQuery>
_7L13

> <ROCS_TanimotoCombo>
0.735 

> <ROCS_ShapeTanimoto>
0.628 

> <ROCS_ColorTanimoto>
0.107 

> <ROCS_RefTversky>
0.774 

> <ROCS_RefColorTversky>
0.222 

> <ROCS_RefTverskyCombo>
0.995 

> <ROCS_FitTversky>
0.770 

> <ROCS_FitColorTversky>
0.171 

> <ROCS_FitTverskyCombo>
0.941 

> <ROCS_ColorScore>
-2.027

> <ROCS_Overlap>
1285.306

> <ROCS_Rank>
452                 

$$$$
ligprep_h3d.sdf:1263_1799
  -OEChem-08212117123D

 69 73  0     1  0  0  0  0  0999 V2000
  -21.0238   -3.9424  -32.1548 C   0  0  0  0  0  0  0  0  0  0  0  0
  -21.9299   -6.1726  -31.9487 C   0  0  0  0  0  0  0  0  0  0  0  0
  -20.6674   -4.2093  -33.4766 C   0  0  0  0  0  0  0  0  0  0  0  0
  -21.5736   -6.4395  -33.2706 C   0  0  0  0  0  0  0  0  0  0  0  0
  -17.2117   -5.6496  -26.9589 C   0  0  0  0  0  0  0  0  0  0  0  0
  -23.6448   -3.8404  -28.4148 C   0  0  0  0  0  0  0  0  0  0  0  0
  -21.0381   -4.6085  -25.2706 C   0  0  0  0  0  0  0  0  0  0  0  0
  -17.8724   -6.8855  -26.8255 C   0  0  0  0  0  0  0  0  0  0  0  0
  -21.5127   -4.6350  -27.6410 C   0  0  0  0  0  0  0  0  0  0  0  0
  -21.6550   -4.9241  -31.3908 C   0  0  0  0  0  0  0  0  0  0  0  0
  -22.0262   -4.6460  -30.0133 C   0  0  0  0  0  0  0  0  0  0  0  0
  -20.9423   -5.4578  -34.0346 C   0  0  0  0  0  0  0  0  0  0  0  0
  -23.2782   -4.1116  -29.7353 C   0  0  0  0  0  0  0  0  0  0  0  0
  -21.1438   -4.9078  -28.9692 C   0  0  0  0  0  0  0  0  0  0  0  0
  -22.7823   -4.0925  -27.3514 C   0  0  0  0  0  0  0  0  0  0  0  0
  -20.6441   -4.8888  -26.5710 C   0  0  0  0  0  0  0  0  0  0  0  0
  -22.2993   -4.0791  -25.0861 C   0  0  0  0  0  0  0  0  0  0  0  0
  -18.2137   -4.7139  -26.8760 C   0  0  0  0  0  0  0  0  0  0  0  0
  -19.0881   -8.6340  -35.7131 C   0  0  0  0  0  0  0  0  0  0  0  0
  -22.7746   -3.7642  -23.7498 C   0  0  0  0  0  0  0  0  0  0  0  0
  -18.8294   -6.7584  -36.9786 C   0  0  0  0  0  0  0  0  0  0  0  0
  -19.1578   -6.3240  -35.5634 C   0  0  1  0  0  0  0  0  0  0  0  0
  -24.2640   -3.8099  -30.8192 C   0  0  0  0  0  0  0  0  0  0  0  0
  -19.8082   -5.4853  -29.3464 C   0  0  0  0  0  0  0  0  0  0  0  0
  -18.1591   -3.2404  -26.9452 C   0  0  0  0  0  0  0  0  0  0  0  0
  -25.7553   -4.6870  -20.2339 C   0  0  0  0  0  0  0  0  0  0  0  0
  -20.5611   -5.7433  -35.4478 C   0  0  0  0  0  0  0  0  0  0  0  0
  -24.7810   -3.5561  -22.2592 C   0  0  0  0  0  0  0  0  0  0  0  0
  -25.5095   -4.7903  -21.7331 C   0  0  2  0  0  0  0  0  0  0  0  0
  -19.1920   -6.7505  -26.6696 N   0  0  0  0  0  0  0  0  0  0  0  0
  -23.1674   -3.8194  -26.0904 N   0  0  0  0  0  0  0  0  0  0  0  0
  -19.3687   -5.4187  -26.7044 N   0  0  0  0  0  0  0  0  0  0  0  0
  -19.0542   -7.5602  -34.8515 N   0  0  0  0  0  0  0  0  0  0  0  0
  -24.1537   -3.8588  -23.5256 N   0  0  0  0  0  0  0  0  0  0  0  0
  -19.1199   -9.8181  -35.4095 O   0  0  0  0  0  0  0  0  0  0  0  0
  -21.9781   -3.4075  -22.8625 O   0  0  0  0  0  0  0  0  0  0  0  0
  -19.0896   -8.1734  -37.0058 O   0  0  0  0  0  0  0  0  0  0  0  0
  -26.7684   -4.8935  -22.3957 O   0  0  0  0  0  0  0  0  0  0  0  0
  -20.8022   -2.9645  -31.7339 H   0  0  0  0  0  0  0  0  0  0  0  0
  -22.4220   -6.9479  -31.3662 H   0  0  0  0  0  0  0  0  0  0  0  0
  -20.1750   -3.4390  -34.0641 H   0  0  0  0  0  0  0  0  0  0  0  0
  -21.7921   -7.4149  -33.6975 H   0  0  0  0  0  0  0  0  0  0  0  0
  -16.1561   -5.4652  -27.0955 H   0  0  0  0  0  0  0  0  0  0  0  0
  -24.6297   -3.4215  -28.2115 H   0  0  0  0  0  0  0  0  0  0  0  0
  -20.3843   -4.7956  -24.4232 H   0  0  0  0  0  0  0  0  0  0  0  0
  -17.4471   -7.8788  -26.8352 H   0  0  0  0  0  0  0  0  0  0  0  0
  -19.4571   -6.2820  -37.7399 H   0  0  0  0  0  0  0  0  0  0  0  0
  -17.7763   -6.5868  -37.2230 H   0  0  0  0  0  0  0  0  0  0  0  0
  -18.4224   -5.6492  -35.1706 H   0  0  0  0  0  0  0  0  0  0  0  0
  -24.1263   -2.7850  -31.1802 H   0  0  0  0  0  0  0  0  0  0  0  0
  -24.1448   -4.4990  -31.6632 H   0  0  0  0  0  0  0  0  0  0  0  0
  -25.2930   -3.9201  -30.4575 H   0  0  0  0  0  0  0  0  0  0  0  0
  -19.8648   -6.5766  -29.3515 H   0  0  0  0  0  0  0  0  0  0  0  0
  -19.5030   -5.1386  -30.3376 H   0  0  0  0  0  0  0  0  0  0  0  0
  -19.0368   -5.1705  -28.6379 H   0  0  0  0  0  0  0  0  0  0  0  0
  -18.2691   -2.8871  -27.9835 H   0  0  0  0  0  0  0  0  0  0  0  0
  -18.9551   -2.7682  -26.3444 H   0  0  0  0  0  0  0  0  0  0  0  0
  -17.2065   -2.8430  -26.5550 H   0  0  0  0  0  0  0  0  0  0  0  0
  -26.3269   -3.7875  -19.9854 H   0  0  0  0  0  0  0  0  0  0  0  0
  -26.2992   -5.5635  -19.8644 H   0  0  0  0  0  0  0  0  0  0  0  0
  -24.8046   -4.6551  -19.6908 H   0  0  0  0  0  0  0  0  0  0  0  0
  -21.2788   -6.4431  -35.9054 H   0  0  0  0  0  0  0  0  0  0  0  0
  -20.6219   -4.8257  -36.0549 H   0  0  0  0  0  0  0  0  0  0  0  0
  -25.4795   -2.7251  -22.4055 H   0  0  0  0  0  0  0  0  0  0  0  0
  -24.0069   -3.2343  -21.5550 H   0  0  0  0  0  0  0  0  0  0  0  0
  -24.9362   -5.6982  -21.9535 H   0  0  0  0  0  0  0  0  0  0  0  0
  -18.9669   -7.6355  -33.8406 H   0  0  0  0  0  0  0  0  0  0  0  0
  -24.7664   -4.0930  -24.2999 H   0  0  0  0  0  0  0  0  0  0  0  0
  -27.1950   -5.6935  -22.0525 H   0  0  0  0  0  0  0  0  0  0  0  0
  1  3  1  0  0  0  0
  1 10  2  0  0  0  0
  2  4  2  0  0  0  0
  2 10  1  0  0  0  0
  3 12  2  0  0  0  0
  4 12  1  0  0  0  0
  5  8  1  0  0  0  0
  5 18  2  0  0  0  0
  6 13  2  0  0  0  0
  6 15  1  0  0  0  0
  7 16  1  0  0  0  0
  7 17  2  0  0  0  0
  8 30  2  0  0  0  0
  9 14  1  0  0  0  0
  9 15  1  0  0  0  0
  9 16  2  0  0  0  0
 10 11  1  0  0  0  0
 11 13  1  0  0  0  0
 11 14  2  0  0  0  0
 12 27  1  0  0  0  0
 13 23  1  0  0  0  0
 14 24  1  0  0  0  0
 15 31  2  0  0  0  0
 16 32  1  0  0  0  0
 17 20  1  0  0  0  0
 17 31  1  0  0  0  0
 18 25  1  0  0  0  0
 18 32  1  0  0  0  0
 19 33  1  0  0  0  0
 19 35  2  0  0  0  0
 19 37  1  0  0  0  0
 20 34  1  0  0  0  0
 20 36  2  0  0  0  0
 21 22  1  0  0  0  0
 21 37  1  0  0  0  0
 22 27  1  0  0  0  0
 22 33  1  0  0  0  0
 26 29  1  0  0  0  0
 28 29  1  0  0  0  0
 28 34  1  0  0  0  0
 29 38  1  0  0  0  0
 30 32  1  0  0  0  0
  1 39  1  0  0  0  0
  2 40  1  0  0  0  0
  3 41  1  0  0  0  0
  4 42  1  0  0  0  0
  5 43  1  0  0  0  0
  6 44  1  0  0  0  0
  7 45  1  0  0  0  0
  8 46  1  0  0  0  0
 21 47  1  0  0  0  0
 21 48  1  0  0  0  0
 22 49  1  0  0  0  0
 23 50  1  0  0  0  0
 23 51  1  0  0  0  0
 23 52  1  0  0  0  0
 24 53  1  0  0  0  0
 24 54  1  0  0  0  0
 24 55  1  0  0  0  0
 25 56  1  0  0  0  0
 25 57  1  0  0  0  0
 25 58  1  0  0  0  0
 26 59  1  0  0  0  0
 26 60  1  0  0  0  0
 26 61  1  0  0  0  0
 27 62  1  0  0  0  0
 27 63  1  0  0  0  0
 28 64  1  0  0  0  0
 28 65  1  0  0  0  0
 29 66  1  0  0  0  0
 33 67  1  0  0  0  0
 34 68  1  0  0  0  0
 38 69  1  0  0  0  0
M  END
> <SMILES>
C[C@@H](O)CNC(=O)c1cc(c2c(c(c(cc2n1)C)-c1ccc(cc1)C[C@@H]1COC(=O)N1)C)-n1nccc1C

> <FORMATTED_ID>
H3D-008556

> <MOLFORMULA>
C29H31N5O4

> <Exact Mass>
513.24

> <XLogP>
3.38

> <TPSA_NOPS>
118.4

> <s_m_source_file>
ligprep_h3d.sdf

> <i_m_source_file_index>
1263

> <i_lp_mmshare_version>
55123

> <i_f3d_flags>
0

> <s_epik_input>
W0NIM11jMVtjSF1bY0hdbm4xLWMyW2NIXWMoQyg9TylbTkhdW0NIMl1bQ0BASF0oW0NIM10pW09IXSluYyhjMjMpW2NIXWMoW0NIM10pYyhjM1tDSDNdKS1jNFtjSF1bY0hdYyhbY0hdW2NIXTQpW0NIMl1bQ0BASF01W0NIMl1PQyg9TylbTkhdNQ==

> <s_epik_cmdline>
J2VwaWtfcHl0aG9uJywgJy1waHQnLCAnMC41JywgJy1waCcsICc3LjUnLCAnLXRuJywgJzgnLCAnLW1hJywgJzUwMCcsICctaW1hZScsICc8aW5maWxlLm1hZT4nLCAnLW9tYWUnLCAnPG91dGZpbGUubWFlPic=

> <r_lp_tautomer_probability>
1

> <r_epik_Ionization_Penalty>
1.94249e-05

> <r_epik_Ionization_Penalty_Charging>
0

> <r_epik_Ionization_Penalty_Neutral>
1.94249e-05

> <r_epik_State_Penalty>
-0

> <r_epik_Charging_Adjusted_Penalty>
0

> <i_epik_Tot_Q>
0

> <i_epik_Tot_abs_Q>
0

> <s_epik_Chemistry_Notes>
This compound has an ester and may undergo hydrolysis at high or low pH.

> <s_lp_Force_Field>
S-OPLS

> <r_lp_Energy>
34.9743

> <b_lp_Chiralities_Consistent>
1

> <s_lp_Variant>
ligprep_h3d.sdf:1263-1

> <ROCS_ShapeQuery>
_7L13

> <ROCS_TanimotoCombo>
0.754 

> <ROCS_ShapeTanimoto>
0.602 

> <ROCS_ColorTanimoto>
0.151 

> <ROCS_RefTversky>
0.774 

> <ROCS_RefColorTversky>
0.314 

> <ROCS_RefTverskyCombo>
1.088 

> <ROCS_FitTversky>
0.731 

> <ROCS_FitColorTversky>
0.226 

> <ROCS_FitTverskyCombo>
0.957 

> <ROCS_ColorScore>
-2.888

> <ROCS_Overlap>
1288.823

> <ROCS_Rank>
453                 

$$$$
ligprep_h3d.sdf:4243_602
  -OEChem-08212117123D

 63 67  0     1  0  0  0  0  0999 V2000
  -20.5576   -4.7817  -25.3850 C   0  0  0  0  0  0  0  0  0  0  0  0
  -22.3919   -3.5956  -26.3914 C   0  0  0  0  0  0  0  0  0  0  0  0
  -21.6191   -4.6091  -30.5410 C   0  0  0  0  0  0  0  0  0  0  0  0
  -19.9872   -4.8599  -26.6453 C   0  0  0  0  0  0  0  0  0  0  0  0
  -23.1790   -2.9681  -32.2727 C   0  0  0  0  0  0  0  0  0  0  0  0
  -21.7829   -4.1359  -25.2642 C   0  0  0  0  0  0  0  0  0  0  0  0
  -22.4541   -4.0491  -32.7637 C   0  0  0  0  0  0  0  0  0  0  0  0
  -21.6986   -4.8389  -31.9047 C   0  0  0  0  0  0  0  0  0  0  0  0
  -21.7393   -3.7267  -27.6066 C   0  0  0  0  0  0  0  0  0  0  0  0
  -22.3572   -3.5241  -30.1047 C   0  0  0  0  0  0  0  0  0  0  0  0
  -21.5497   -5.5492  -33.9927 C   0  0  0  0  0  0  0  0  0  0  0  0
  -22.4309   -4.0260  -23.9507 C   0  0  0  0  0  0  0  0  0  0  0  0
  -19.8424   -5.8696  -35.8349 C   0  0  0  0  0  0  0  0  0  0  0  0
  -20.8946   -7.8876  -34.7093 C   0  0  0  0  0  0  0  0  0  0  0  0
  -19.4091   -6.7520  -37.0042 C   0  0  0  0  0  0  0  0  0  0  0  0
  -20.4583   -8.7648  -35.8813 C   0  0  0  0  0  0  0  0  0  0  0  0
  -24.4543   -5.3041  -24.8296 C   0  0  0  0  0  0  0  0  0  0  0  0
  -24.3443   -4.5721  -22.4819 C   0  0  0  0  0  0  0  0  0  0  0  0
  -21.1028   -6.4265  -35.1480 C   0  0  0  0  0  0  0  0  0  0  0  0
  -25.8946   -4.7878  -24.8707 C   0  0  1  0  0  0  0  0  0  0  0  0
  -25.7827   -4.0734  -22.6139 C   0  0  2  0  0  0  0  0  0  0  0  0
  -19.2308   -8.1982  -36.5744 C   0  0  0  0  0  0  0  0  0  0  0  0
  -26.7445   -5.6111  -25.8276 C   0  0  0  0  0  0  0  0  0  0  0  0
  -26.5215   -4.1701  -21.2871 C   0  0  0  0  0  0  0  0  0  0  0  0
  -20.5485   -4.3472  -27.7632 N   0  0  0  0  0  0  0  0  0  0  0  0
  -22.3482   -4.5079  -34.0589 N   0  0  0  0  0  0  0  0  0  0  0  0
  -21.1317   -5.7890  -32.7143 N   0  0  0  0  0  0  0  0  0  0  0  0
  -23.0761   -2.7803  -30.9532 N   0  3  0  0  0  0  0  0  0  0  0  0
  -23.6945   -4.5970  -23.7914 N   0  0  0  0  0  0  0  0  0  0  0  0
  -22.3719   -3.1705  -28.7462 N   0  0  0  0  0  0  0  0  0  0  0  0
  -21.7971   -3.4342  -23.0783 O   0  0  0  0  0  0  0  0  0  0  0  0
  -26.4863   -4.8799  -23.5681 O   0  0  0  0  0  0  0  0  0  0  0  0
  -18.9336   -8.9578  -37.6583 F   0  0  0  0  0  0  0  0  0  0  0  0
  -18.1641   -8.2876  -35.7380 F   0  0  0  0  0  0  0  0  0  0  0  0
  -20.0559   -5.2145  -24.5261 H   0  0  0  0  0  0  0  0  0  0  0  0
  -23.3487   -3.0869  -26.3171 H   0  0  0  0  0  0  0  0  0  0  0  0
  -21.0278   -5.2300  -29.8804 H   0  0  0  0  0  0  0  0  0  0  0  0
  -19.0324   -5.3536  -26.7932 H   0  0  0  0  0  0  0  0  0  0  0  0
  -23.7989   -2.2850  -32.8346 H   0  0  0  0  0  0  0  0  0  0  0  0
  -19.0209   -5.7991  -35.1111 H   0  0  0  0  0  0  0  0  0  0  0  0
  -20.0292   -4.8523  -36.1975 H   0  0  0  0  0  0  0  0  0  0  0  0
  -21.8208   -8.2881  -34.2812 H   0  0  0  0  0  0  0  0  0  0  0  0
  -20.1358   -7.9371  -33.9184 H   0  0  0  0  0  0  0  0  0  0  0  0
  -20.1502   -6.6957  -37.8105 H   0  0  0  0  0  0  0  0  0  0  0  0
  -18.4670   -6.3727  -37.4163 H   0  0  0  0  0  0  0  0  0  0  0  0
  -20.2409   -9.7756  -35.5178 H   0  0  0  0  0  0  0  0  0  0  0  0
  -21.2782   -8.8599  -36.6032 H   0  0  0  0  0  0  0  0  0  0  0  0
  -24.4328   -6.3652  -24.5520 H   0  0  0  0  0  0  0  0  0  0  0  0
  -23.9861   -5.2045  -25.8122 H   0  0  0  0  0  0  0  0  0  0  0  0
  -23.7793   -3.9495  -21.7805 H   0  0  0  0  0  0  0  0  0  0  0  0
  -24.3241   -5.6035  -22.1090 H   0  0  0  0  0  0  0  0  0  0  0  0
  -21.9311   -6.4115  -35.8950 H   0  0  0  0  0  0  0  0  0  0  0  0
  -25.9152   -3.7388  -25.1970 H   0  0  0  0  0  0  0  0  0  0  0  0
  -25.7983   -3.0271  -22.9501 H   0  0  0  0  0  0  0  0  0  0  0  0
  -26.7405   -6.6587  -25.5248 H   0  0  0  0  0  0  0  0  0  0  0  0
  -26.3475   -5.5352  -26.8403 H   0  0  0  0  0  0  0  0  0  0  0  0
  -27.7723   -5.2466  -25.8232 H   0  0  0  0  0  0  0  0  0  0  0  0
  -26.5196   -5.2012  -20.9321 H   0  0  0  0  0  0  0  0  0  0  0  0
  -27.5539   -3.8410  -21.4090 H   0  0  0  0  0  0  0  0  0  0  0  0
  -26.0358   -3.5395  -20.5417 H   0  0  0  0  0  0  0  0  0  0  0  0
  -20.5151   -6.5331  -32.4156 H   0  0  0  0  0  0  0  0  0  0  0  0
  -23.5931   -1.9968  -30.5532 H   0  0  0  0  0  0  0  0  0  0  0  0
  -22.9428   -2.3615  -28.5318 H   0  0  0  0  0  0  0  0  0  0  0  0
  1  4  1  0  0  0  0
  1  6  2  0  0  0  0
  2  6  1  0  0  0  0
  2  9  2  0  0  0  0
  3  8  1  0  0  0  0
  3 10  2  0  0  0  0
  4 25  2  0  0  0  0
  5  7  1  0  0  0  0
  5 28  2  0  0  0  0
  6 12  1  0  0  0  0
  7  8  2  0  0  0  0
  7 26  1  0  0  0  0
  8 27  1  0  0  0  0
  9 25  1  0  0  0  0
  9 30  1  0  0  0  0
 10 28  1  0  0  0  0
 10 30  1  0  0  0  0
 11 19  1  0  0  0  0
 11 26  2  0  0  0  0
 11 27  1  0  0  0  0
 12 29  1  0  0  0  0
 12 31  2  0  0  0  0
 13 15  1  0  0  0  0
 13 19  1  0  0  0  0
 14 16  1  0  0  0  0
 14 19  1  0  0  0  0
 15 22  1  0  0  0  0
 16 22  1  0  0  0  0
 17 20  1  0  0  0  0
 17 29  1  0  0  0  0
 18 21  1  0  0  0  0
 18 29  1  0  0  0  0
 20 23  1  0  0  0  0
 20 32  1  0  0  0  0
 21 24  1  0  0  0  0
 21 32  1  0  0  0  0
 22 33  1  0  0  0  0
 22 34  1  0  0  0  0
  1 35  1  0  0  0  0
  2 36  1  0  0  0  0
  3 37  1  0  0  0  0
  4 38  1  0  0  0  0
  5 39  1  0  0  0  0
 13 40  1  0  0  0  0
 13 41  1  0  0  0  0
 14 42  1  0  0  0  0
 14 43  1  0  0  0  0
 15 44  1  0  0  0  0
 15 45  1  0  0  0  0
 16 46  1  0  0  0  0
 16 47  1  0  0  0  0
 17 48  1  0  0  0  0
 17 49  1  0  0  0  0
 18 50  1  0  0  0  0
 18 51  1  0  0  0  0
 19 52  1  0  0  0  0
 20 53  1  0  0  0  0
 21 54  1  0  0  0  0
 23 55  1  0  0  0  0
 23 56  1  0  0  0  0
 23 57  1  0  0  0  0
 24 58  1  0  0  0  0
 24 59  1  0  0  0  0
 24 60  1  0  0  0  0
 27 61  1  0  0  0  0
 28 62  1  0  0  0  0
 30 63  1  0  0  0  0
M  CHG  1  28   1
M  END
> <SMILES>
CC1CN(CC(C)O1)C(=O)c1ccnc(c1)Nc1cc2[nH]c(nc2cn1)C1CCC(F)(F)CC1

> <FORMATTED_ID>
H3D-003266

> <MOLFORMULA>
C24H28F2N6O2

> <Exact Mass>
470.22

> <XLogP>
4.57

> <TPSA_NOPS>
96

> <s_m_source_file>
ligprep_h3d.sdf

> <i_m_source_file_index>
4243

> <i_lp_mmshare_version>
55123

> <i_f3d_flags>
0

> <s_epik_input>
W0NIM11bQ0BASF0xW0NIMl1OKFtDSDJdW0NAQEhdKE8xKVtDSDNdKUMoPU8pYzJbY0hdW2NIXW5jKFtjSF0yKVtOSF1jKFtjSF0zKVtuSF1bY0hdYyhjMzQpbmMobjQpW0NIXShbQ0gyXVtDSDJdNSlbQ0gyXVtDSDJdQzUoRilG

> <s_epik_cmdline>
J2VwaWtfcHl0aG9uJywgJy1waHQnLCAnMC41JywgJy1waCcsICc3LjUnLCAnLXRuJywgJzgnLCAnLW1hJywgJzUwMCcsICctaW1hZScsICc8aW5maWxlLm1hZT4nLCAnLW9tYWUnLCAnPG91dGZpbGUubWFlPic=

> <r_lp_tautomer_probability>
1

> <r_epik_Ionization_Penalty>
0.642146

> <r_epik_Ionization_Penalty_Charging>
1.25197e-06

> <r_epik_Ionization_Penalty_Neutral>
0.642144

> <r_epik_State_Penalty>
0.42885

> <r_epik_Charging_Adjusted_Penalty>
0.428851

> <i_epik_Tot_Q>
1

> <i_epik_Tot_abs_Q>
1

> <s_lp_Force_Field>
S-OPLS

> <r_lp_Energy>
53.5512

> <b_lp_Chiralities_Consistent>
1

> <s_lp_Variant>
ligprep_h3d.sdf:4243-2

> <ROCS_ShapeQuery>
_7L13

> <ROCS_TanimotoCombo>
0.843 

> <ROCS_ShapeTanimoto>
0.656 

> <ROCS_ColorTanimoto>
0.187 

> <ROCS_RefTversky>
0.774 

> <ROCS_RefColorTversky>
0.377 

> <ROCS_RefTverskyCombo>
1.150 

> <ROCS_FitTversky>
0.812 

> <ROCS_FitColorTversky>
0.270 

> <ROCS_FitTverskyCombo>
1.082 

> <ROCS_ColorScore>
-3.467

> <ROCS_Overlap>
1281.252

> <ROCS_Rank>
454                 

$$$$
ligprep_h3d.sdf:691_27
  -OEChem-08212117123D

 59 64  0     1  0  0  0  0  0999 V2000
  -20.9557   -5.1067  -29.5190 C   0  0  0  0  0  0  0  0  0  0  0  0
  -21.7500   -4.3630  -30.3940 C   0  0  0  0  0  0  0  0  0  0  0  0
  -21.0700   -4.8713  -28.1272 C   0  0  0  0  0  0  0  0  0  0  0  0
  -21.9876   -3.9402  -27.5864 C   0  0  0  0  0  0  0  0  0  0  0  0
  -22.6165   -3.4332  -29.8633 C   0  0  0  0  0  0  0  0  0  0  0  0
  -22.7655   -3.1876  -28.4980 C   0  0  0  0  0  0  0  0  0  0  0  0
  -21.9529   -4.2565  -31.7825 C   0  0  0  0  0  0  0  0  0  0  0  0
  -18.9214   -3.7674  -26.2157 C   0  0  0  0  0  0  0  0  0  0  0  0
  -19.2119   -6.0431  -25.0397 C   0  0  0  0  0  0  0  0  0  0  0  0
  -16.9711   -5.2329  -25.7468 C   0  0  0  0  0  0  0  0  0  0  0  0
  -20.1836   -5.6764  -27.2147 C   0  0  0  0  0  0  0  0  0  0  0  0
  -21.3009   -6.4932  -32.7097 C   0  0  0  0  0  0  0  0  0  0  0  0
  -20.3898   -4.4968  -33.7285 C   0  0  0  0  0  0  0  0  0  0  0  0
  -23.0695   -2.8220  -25.6468 C   0  0  0  0  0  0  0  0  0  0  0  0
  -21.1987   -4.4650  -25.2441 C   0  0  2  0  0  0  0  0  0  0  0  0
  -20.1694   -6.8791  -33.6597 C   0  0  2  0  0  0  0  0  0  0  0  0
  -20.0989   -5.7002  -34.6215 C   0  0  2  0  0  0  0  0  0  0  0  0
  -23.4298   -3.1450  -24.1940 C   0  0  1  0  0  0  0  0  0  0  0  0
  -21.0482   -3.5303  -24.0086 C   0  0  2  0  0  0  0  0  0  0  0  0
  -19.8619   -4.9396  -25.8906 C   0  0  0  0  0  0  0  0  0  0  0  0
  -24.3942   -4.3237  -24.0752 C   0  0  0  0  0  0  0  0  0  0  0  0
  -20.0815   -3.9973  -22.9269 C   0  0  0  0  0  0  0  0  0  0  0  0
  -22.8697   -3.3343  -32.0914 N   0  0  0  0  0  0  0  0  0  0  0  0
  -17.5723   -4.0838  -26.2400 N   0  0  0  0  0  0  0  0  0  0  0  0
  -17.8331   -6.1384  -25.1448 N   0  0  0  0  0  0  0  0  0  0  0  0
  -22.0973   -3.7712  -26.2041 N   0  0  3  0  0  0  0  0  0  0  0  0
  -21.2579   -5.0340  -32.6846 N   0  0  0  0  0  0  0  0  0  0  0  0
  -19.3225   -2.6389  -26.4999 O   0  0  0  0  0  0  0  0  0  0  0  0
  -19.8668   -6.8492  -24.3773 O   0  0  0  0  0  0  0  0  0  0  0  0
  -15.7540   -5.4172  -25.8027 O   0  0  0  0  0  0  0  0  0  0  0  0
  -23.2868   -2.8126  -30.8724 O   0  0  0  0  0  0  0  0  0  0  0  0
  -22.3110   -3.3872  -23.3465 O   0  0  0  0  0  0  0  0  0  0  0  0
  -20.4695   -8.0696  -34.3658 O   0  0  0  0  0  0  0  0  0  0  0  0
  -18.8109   -5.5925  -35.2009 O   0  0  0  0  0  0  0  0  0  0  0  0
  -23.5643   -2.1795  -28.1285 F   0  0  0  0  0  0  0  0  0  0  0  0
  -20.2562   -5.8460  -29.8990 H   0  0  0  0  0  0  0  0  0  0  0  0
  -20.6943   -6.6288  -27.0167 H   0  0  0  0  0  0  0  0  0  0  0  0
  -19.2493   -5.9238  -27.7372 H   0  0  0  0  0  0  0  0  0  0  0  0
  -22.2755   -6.8584  -33.0556 H   0  0  0  0  0  0  0  0  0  0  0  0
  -21.1069   -6.8735  -31.6991 H   0  0  0  0  0  0  0  0  0  0  0  0
  -19.4750   -4.0648  -33.3047 H   0  0  0  0  0  0  0  0  0  0  0  0
  -20.9350   -3.7228  -34.2829 H   0  0  0  0  0  0  0  0  0  0  0  0
  -23.9820   -2.8788  -26.2758 H   0  0  0  0  0  0  0  0  0  0  0  0
  -22.7766   -1.7616  -25.6862 H   0  0  0  0  0  0  0  0  0  0  0  0
  -21.7603   -5.3538  -24.9172 H   0  0  0  0  0  0  0  0  0  0  0  0
  -19.2236   -7.0249  -33.1041 H   0  0  0  0  0  0  0  0  0  0  0  0
  -20.8479   -5.7709  -35.4340 H   0  0  0  0  0  0  0  0  0  0  0  0
  -23.9911   -2.2481  -23.7561 H   0  0  0  0  0  0  0  0  0  0  0  0
  -20.7215   -2.5208  -24.3187 H   0  0  0  0  0  0  0  0  0  0  0  0
  -23.9312   -5.2264  -24.4743 H   0  0  0  0  0  0  0  0  0  0  0  0
  -25.3064   -4.1173  -24.6352 H   0  0  0  0  0  0  0  0  0  0  0  0
  -24.6516   -4.4912  -23.0292 H   0  0  0  0  0  0  0  0  0  0  0  0
  -20.3595   -4.9938  -22.5835 H   0  0  0  0  0  0  0  0  0  0  0  0
  -20.1094   -3.3110  -22.0806 H   0  0  0  0  0  0  0  0  0  0  0  0
  -19.0665   -4.0299  -23.3229 H   0  0  0  0  0  0  0  0  0  0  0  0
  -16.9555   -3.3987  -26.6658 H   0  0  0  0  0  0  0  0  0  0  0  0
  -17.3995   -6.9338  -24.6848 H   0  0  0  0  0  0  0  0  0  0  0  0
  -20.5940   -8.7650  -33.7003 H   0  0  0  0  0  0  0  0  0  0  0  0
  -18.8082   -4.7758  -35.7253 H   0  0  0  0  0  0  0  0  0  0  0  0
  1  2  2  0  0  0  0
  1  3  1  0  0  0  0
  2  5  1  0  0  0  0
  2  7  1  0  0  0  0
  3  4  2  0  0  0  0
  3 11  1  0  0  0  0
  4  6  1  0  0  0  0
  4 26  1  0  0  0  0
  5  6  2  0  0  0  0
  5 31  1  0  0  0  0
  6 35  1  0  0  0  0
  7 23  2  0  0  0  0
  7 27  1  0  0  0  0
  8 20  1  0  0  0  0
  8 24  1  0  0  0  0
  8 28  2  0  0  0  0
  9 20  1  0  0  0  0
  9 25  1  0  0  0  0
  9 29  2  0  0  0  0
 10 24  1  0  0  0  0
 10 25  1  0  0  0  0
 10 30  2  0  0  0  0
 11 20  1  0  0  0  0
 12 16  1  0  0  0  0
 12 27  1  0  0  0  0
 13 17  1  0  0  0  0
 13 27  1  0  0  0  0
 14 18  1  0  0  0  0
 14 26  1  0  0  0  0
 15 19  1  0  0  0  0
 15 20  1  0  0  0  0
 15 26  1  0  0  0  0
 16 17  1  0  0  0  0
 16 33  1  0  0  0  0
 17 34  1  0  0  0  0
 18 21  1  0  0  0  0
 18 32  1  0  0  0  0
 19 22  1  0  0  0  0
 19 32  1  0  0  0  0
 23 31  1  0  0  0  0
  1 36  1  0  0  0  0
 11 37  1  0  0  0  0
 11 38  1  0  0  0  0
 12 39  1  0  0  0  0
 12 40  1  0  0  0  0
 13 41  1  0  0  0  0
 13 42  1  0  0  0  0
 14 43  1  0  0  0  0
 14 44  1  0  0  0  0
 15 45  1  0  0  0  0
 16 46  1  0  0  0  0
 17 47  1  0  0  0  0
 18 48  1  0  0  0  0
 19 49  1  0  0  0  0
 21 50  1  0  0  0  0
 21 51  1  0  0  0  0
 21 52  1  0  0  0  0
 22 53  1  0  0  0  0
 22 54  1  0  0  0  0
 22 55  1  0  0  0  0
 24 56  1  0  0  0  0
 25 57  1  0  0  0  0
 33 58  1  0  0  0  0
 34 59  1  0  0  0  0
M  END
> <SMILES>
C[C@@H]1CN2[C@H]([C@H](C)O1)C1(Cc3cc4c(noc4c(c32)F)N2C[C@@H](O)[C@H](O)C2)C(=O)NC(=O)NC1=O

> <FORMATTED_ID>
H3D-004885

> <MOLFORMULA>
C22H24FN5O7

> <Exact Mass>
489.17

> <XLogP>
-1.33

> <TPSA_NOPS>
157.8

> <s_m_source_file>
ligprep_h3d.sdf

> <i_m_source_file_index>
691

> <i_lp_mmshare_version>
55123

> <i_f3d_flags>
0

> <s_epik_input>
Tz1DMVtOSF1DKD1PKVtOSF1DKD1PKUMxMltDQEBIXTNOKFtDSDJdW0NAQEhdKFtDSDNdKU9bQ0BIXTNbQ0gzXSljNGMoW0NIMl0yKVtjSF1jNWMoYzRGKW9uYzVONltDSDJdW0NAQEhdKFtPSF0pW0NASF0oW09IXSlbQ0gyXTY=

> <s_epik_cmdline>
J2VwaWtfcHl0aG9uJywgJy1waHQnLCAnMC41JywgJy1waCcsICc3LjUnLCAnLXRuJywgJzgnLCAnLW1hJywgJzUwMCcsICctaW1hZScsICc8aW5maWxlLm1hZT4nLCAnLW9tYWUnLCAnPG91dGZpbGUubWFlPic=

> <r_lp_tautomer_probability>
1

> <r_epik_Ionization_Penalty>
0.36913

> <r_epik_Ionization_Penalty_Charging>
0

> <r_epik_Ionization_Penalty_Neutral>
0.36913

> <r_epik_State_Penalty>
0.366447

> <r_epik_Charging_Adjusted_Penalty>
0.366447

> <i_epik_Tot_Q>
0

> <i_epik_Tot_abs_Q>
0

> <s_lp_Force_Field>
S-OPLS

> <r_lp_Energy>
43.3373

> <b_lp_Chiralities_Consistent>
1

> <s_lp_Variant>
ligprep_h3d.sdf:691-1

> <ROCS_ShapeQuery>
_7L13

> <ROCS_TanimotoCombo>
0.750 

> <ROCS_ShapeTanimoto>
0.631 

> <ROCS_ColorTanimoto>
0.119 

> <ROCS_RefTversky>
0.774 

> <ROCS_RefColorTversky>
0.294 

> <ROCS_RefTverskyCombo>
1.068 

> <ROCS_FitTversky>
0.775 

> <ROCS_FitColorTversky>
0.166 

> <ROCS_FitTverskyCombo>
0.941 

> <ROCS_ColorScore>
-2.766

> <ROCS_Overlap>
1284.541

> <ROCS_Rank>
455                 

$$$$
ligprep_h3d.sdf:4245_1380
  -OEChem-08212117123D

 59 63  0     0  0  0  0  0  0999 V2000
  -20.2453   -6.0308  -36.2629 C   0  0  0  0  0  0  0  0  0  0  0  0
  -19.6492   -6.8220  -37.2448 C   0  0  0  0  0  0  0  0  0  0  0  0
  -20.5052   -4.4008  -25.4938 C   0  0  0  0  0  0  0  0  0  0  0  0
  -19.8678   -7.7718  -34.6308 C   0  0  0  0  0  0  0  0  0  0  0  0
  -22.4729   -3.5336  -26.5711 C   0  0  0  0  0  0  0  0  0  0  0  0
  -21.4233   -4.5343  -30.5782 C   0  0  0  0  0  0  0  0  0  0  0  0
  -19.8990   -4.4235  -26.7395 C   0  0  0  0  0  0  0  0  0  0  0  0
  -23.0895   -3.2985  -32.4880 C   0  0  0  0  0  0  0  0  0  0  0  0
  -20.3546   -6.5057  -34.9558 C   0  0  0  0  0  0  0  0  0  0  0  0
  -21.8169   -3.9459  -25.4166 C   0  0  0  0  0  0  0  0  0  0  0  0
  -19.2717   -8.5631  -35.6128 C   0  0  0  0  0  0  0  0  0  0  0  0
  -22.1794   -4.2775  -32.8878 C   0  0  0  0  0  0  0  0  0  0  0  0
  -21.3700   -4.8702  -31.9240 C   0  0  0  0  0  0  0  0  0  0  0  0
  -19.1624   -8.0881  -36.9198 C   0  0  0  0  0  0  0  0  0  0  0  0
  -21.7785   -3.5949  -27.7685 C   0  0  0  0  0  0  0  0  0  0  0  0
  -22.3587   -3.5527  -30.2835 C   0  0  0  0  0  0  0  0  0  0  0  0
  -20.9711   -5.6868  -33.9403 C   0  0  0  0  0  0  0  0  0  0  0  0
  -22.5060   -3.9022  -24.1201 C   0  0  0  0  0  0  0  0  0  0  0  0
  -27.7600   -5.3768  -23.2668 C   0  0  0  0  0  0  0  0  0  0  0  0
  -24.6734   -4.8557  -25.0690 C   0  0  0  0  0  0  0  0  0  0  0  0
  -24.6975   -3.3693  -23.1042 C   0  0  0  0  0  0  0  0  0  0  0  0
  -25.5780   -5.8435  -24.3392 C   0  0  0  0  0  0  0  0  0  0  0  0
  -25.6131   -4.3467  -22.3701 C   0  0  0  0  0  0  0  0  0  0  0  0
  -28.4068   -5.2616  -21.9097 C   0  0  0  0  0  0  0  0  0  0  0  0
  -18.7513   -9.9163  -35.2622 C   0  0  0  0  0  0  0  0  0  0  0  0
  -20.5040   -4.0309  -27.8829 N   0  0  0  0  0  0  0  0  0  0  0  0
  -23.1713   -2.9429  -31.1817 N   0  0  0  0  0  0  0  0  0  0  0  0
  -21.9183   -4.7965  -34.1341 N   0  0  0  0  0  0  0  0  0  0  0  0
  -20.6068   -5.7680  -32.6248 N   0  0  0  0  0  0  0  0  0  0  0  0
  -23.8915   -4.0716  -24.1034 N   0  0  0  0  0  0  0  0  0  0  0  0
  -26.3840   -5.1594  -23.3225 N   0  0  0  0  0  0  0  0  0  0  0  0
  -22.4600   -3.1708  -28.9363 N   0  0  0  0  0  0  0  0  0  0  0  0
  -21.7949   -3.7273  -23.1315 O   0  0  0  0  0  0  0  0  0  0  0  0
  -28.4582   -5.6496  -24.2467 O   0  0  0  0  0  0  0  0  0  0  0  0
  -18.5931   -8.8421  -37.8705 F   0  0  0  0  0  0  0  0  0  0  0  0
  -18.9263  -10.2464  -33.9484 F   0  0  0  0  0  0  0  0  0  0  0  0
  -19.3413  -10.9277  -35.9652 F   0  0  0  0  0  0  0  0  0  0  0  0
  -17.4123  -10.0404  -35.4956 F   0  0  0  0  0  0  0  0  0  0  0  0
  -20.6200   -5.0460  -36.5318 H   0  0  0  0  0  0  0  0  0  0  0  0
  -19.5628   -6.4531  -38.2626 H   0  0  0  0  0  0  0  0  0  0  0  0
  -19.9649   -4.7301  -24.6127 H   0  0  0  0  0  0  0  0  0  0  0  0
  -19.9499   -8.1484  -33.6130 H   0  0  0  0  0  0  0  0  0  0  0  0
  -23.4973   -3.1746  -26.5310 H   0  0  0  0  0  0  0  0  0  0  0  0
  -20.7881   -5.0009  -29.8360 H   0  0  0  0  0  0  0  0  0  0  0  0
  -18.8770   -4.7698  -26.8536 H   0  0  0  0  0  0  0  0  0  0  0  0
  -23.7543   -2.7868  -33.1725 H   0  0  0  0  0  0  0  0  0  0  0  0
  -23.9620   -5.3880  -25.7112 H   0  0  0  0  0  0  0  0  0  0  0  0
  -25.2779   -4.2126  -25.7125 H   0  0  0  0  0  0  0  0  0  0  0  0
  -25.2952   -2.5820  -23.5754 H   0  0  0  0  0  0  0  0  0  0  0  0
  -24.0078   -2.8849  -22.4024 H   0  0  0  0  0  0  0  0  0  0  0  0
  -26.2755   -6.3157  -25.0429 H   0  0  0  0  0  0  0  0  0  0  0  0
  -24.9675   -6.6403  -23.9076 H   0  0  0  0  0  0  0  0  0  0  0  0
  -25.0197   -4.9844  -21.7092 H   0  0  0  0  0  0  0  0  0  0  0  0
  -26.3337   -3.8052  -21.7473 H   0  0  0  0  0  0  0  0  0  0  0  0
  -28.7235   -4.2357  -21.7533 H   0  0  0  0  0  0  0  0  0  0  0  0
  -27.6886   -5.5481  -21.1481 H   0  0  0  0  0  0  0  0  0  0  0  0
  -29.2646   -5.9251  -21.8676 H   0  0  0  0  0  0  0  0  0  0  0  0
  -19.9010   -6.3785  -32.2342 H   0  0  0  0  0  0  0  0  0  0  0  0
  -23.1519   -2.4528  -28.7571 H   0  0  0  0  0  0  0  0  0  0  0  0
  1  2  1  0  0  0  0
  1  9  2  0  0  0  0
  2 14  2  0  0  0  0
  3  7  1  0  0  0  0
  3 10  2  0  0  0  0
  4  9  1  0  0  0  0
  4 11  2  0  0  0  0
  5 10  1  0  0  0  0
  5 15  2  0  0  0  0
  6 13  1  0  0  0  0
  6 16  2  0  0  0  0
  7 26  2  0  0  0  0
  8 12  1  0  0  0  0
  8 27  2  0  0  0  0
  9 17  1  0  0  0  0
 10 18  1  0  0  0  0
 11 14  1  0  0  0  0
 11 25  1  0  0  0  0
 12 13  2  0  0  0  0
 12 28  1  0  0  0  0
 13 29  1  0  0  0  0
 14 35  1  0  0  0  0
 15 26  1  0  0  0  0
 15 32  1  0  0  0  0
 16 27  1  0  0  0  0
 16 32  1  0  0  0  0
 17 28  2  0  0  0  0
 17 29  1  0  0  0  0
 18 30  1  0  0  0  0
 18 33  2  0  0  0  0
 19 24  1  0  0  0  0
 19 31  1  0  0  0  0
 19 34  2  0  0  0  0
 20 22  1  0  0  0  0
 20 30  1  0  0  0  0
 21 23  1  0  0  0  0
 21 30  1  0  0  0  0
 22 31  1  0  0  0  0
 23 31  1  0  0  0  0
 25 36  1  0  0  0  0
 25 37  1  0  0  0  0
 25 38  1  0  0  0  0
  1 39  1  0  0  0  0
  2 40  1  0  0  0  0
  3 41  1  0  0  0  0
  4 42  1  0  0  0  0
  5 43  1  0  0  0  0
  6 44  1  0  0  0  0
  7 45  1  0  0  0  0
  8 46  1  0  0  0  0
 20 47  1  0  0  0  0
 20 48  1  0  0  0  0
 21 49  1  0  0  0  0
 21 50  1  0  0  0  0
 22 51  1  0  0  0  0
 22 52  1  0  0  0  0
 23 53  1  0  0  0  0
 23 54  1  0  0  0  0
 24 55  1  0  0  0  0
 24 56  1  0  0  0  0
 24 57  1  0  0  0  0
 29 58  1  0  0  0  0
 32 59  1  0  0  0  0
M  END
> <SMILES>
CC(=O)N1CCN(CC1)C(=O)c1ccnc(c1)Nc1cc2[nH]c(nc2cn1)-c1ccc(c(c1)C(F)(F)F)F

> <FORMATTED_ID>
H3D-003311

> <MOLFORMULA>
C25H21F4N7O2

> <Exact Mass>
527.17

> <XLogP>
4.47

> <TPSA_NOPS>
107.1

> <s_m_source_file>
ligprep_h3d.sdf

> <i_m_source_file_index>
4245

> <i_lp_mmshare_version>
55123

> <i_f3d_flags>
0

> <s_epik_input>
W0NIM11DKD1PKU4xW0NIMl1bQ0gyXU4oW0NIMl1bQ0gyXTEpQyg9TyljMltjSF1bY0hdbmMoW2NIXTIpW05IXWMoW2NIXTMpW25IXVtjSF1jKGMzNCluYyhuNCktYzVbY0hdW2NIXWMoRiljKFtjSF01KUMoRikoRilG

> <s_epik_cmdline>
J2VwaWtfcHl0aG9uJywgJy1waHQnLCAnMC41JywgJy1waCcsICc3LjUnLCAnLXRuJywgJzgnLCAnLW1hJywgJzUwMCcsICctaW1hZScsICc8aW5maWxlLm1hZT4nLCAnLW9tYWUnLCAnPG91dGZpbGUubWFlPic=

> <r_lp_tautomer_probability>
1

> <r_epik_Ionization_Penalty>
0.0951183

> <r_epik_Ionization_Penalty_Charging>
0.0947018

> <r_epik_Ionization_Penalty_Neutral>
0.0004165

> <r_epik_State_Penalty>
-0

> <r_epik_Charging_Adjusted_Penalty>
0.0947018

> <i_epik_Tot_Q>
0

> <i_epik_Tot_abs_Q>
0

> <s_lp_Force_Field>
S-OPLS

> <r_lp_Energy>
47.0621

> <b_lp_Chiralities_Consistent>
1

> <s_lp_Variant>
ligprep_h3d.sdf:4245-1

> <ROCS_ShapeQuery>
_7L13

> <ROCS_TanimotoCombo>
0.765 

> <ROCS_ShapeTanimoto>
0.598 

> <ROCS_ColorTanimoto>
0.167 

> <ROCS_RefTversky>
0.774 

> <ROCS_RefColorTversky>
0.329 

> <ROCS_RefTverskyCombo>
1.102 

> <ROCS_FitTversky>
0.724 

> <ROCS_FitColorTversky>
0.253 

> <ROCS_FitTverskyCombo>
0.978 

> <ROCS_ColorScore>
-3.007

> <ROCS_Overlap>
1289.473

> <ROCS_Rank>
456                 

$$$$
ligprep_h3d.sdf:4294_1557
  -OEChem-08212117123D

 70 76  0     1  0  0  0  0  0999 V2000
  -17.9229   -5.9784  -24.6148 C   0  0  0  0  0  0  0  0  0  0  0  0
  -20.5387   -8.1511  -30.7129 C   0  0  0  0  0  0  0  0  0  0  0  0
  -19.2683   -5.8032  -24.2911 C   0  0  0  0  0  0  0  0  0  0  0  0
  -21.2333   -6.9583  -30.5122 C   0  0  0  0  0  0  0  0  0  0  0  0
  -17.4315   -5.5078  -25.8326 C   0  0  0  0  0  0  0  0  0  0  0  0
  -19.8159   -8.3477  -31.8897 C   0  0  0  0  0  0  0  0  0  0  0  0
  -24.2313   -4.5093  -22.5697 C   0  0  0  0  0  0  0  0  0  0  0  0
  -22.4535   -1.2145  -31.6992 C   0  0  0  0  0  0  0  0  0  0  0  0
  -19.6311   -4.6868  -26.4027 C   0  0  0  0  0  0  0  0  0  0  0  0
  -20.4824   -6.1587  -32.6649 C   0  0  0  0  0  0  0  0  0  0  0  0
  -25.5345   -4.3908  -23.0169 C   0  0  0  0  0  0  0  0  0  0  0  0
  -23.5337   -0.5749  -31.1191 C   0  0  0  0  0  0  0  0  0  0  0  0
  -20.1224   -5.1574  -25.1850 C   0  0  0  0  0  0  0  0  0  0  0  0
  -21.2052   -5.9621  -31.4881 C   0  0  0  0  0  0  0  0  0  0  0  0
  -23.6390   -4.7378  -24.9252 C   0  0  0  0  0  0  0  0  0  0  0  0
  -23.3340   -3.2414  -30.6660 C   0  0  0  0  0  0  0  0  0  0  0  0
  -23.2983   -4.6848  -23.5785 C   0  0  0  0  0  0  0  0  0  0  0  0
  -22.3924   -2.5740  -31.4410 C   0  0  0  0  0  0  0  0  0  0  0  0
  -18.2857   -4.8620  -26.7265 C   0  0  0  0  0  0  0  0  0  0  0  0
  -19.7878   -7.3515  -32.8656 C   0  0  0  0  0  0  0  0  0  0  0  0
  -24.9664   -4.6131  -25.3218 C   0  0  0  0  0  0  0  0  0  0  0  0
  -24.4027   -2.5500  -30.1049 C   0  0  0  0  0  0  0  0  0  0  0  0
  -21.5137   -4.9756  -24.8501 C   0  0  0  0  0  0  0  0  0  0  0  0
  -21.9230   -4.7281  -31.2804 C   0  0  0  0  0  0  0  0  0  0  0  0
  -26.8287   -4.9158  -28.4893 C   0  0  0  0  0  0  0  0  0  0  0  0
  -26.8154   -4.5161  -27.0131 C   0  0  0  0  0  0  0  0  0  0  0  0
  -24.5437   -4.8409  -27.7870 C   0  0  0  0  0  0  0  0  0  0  0  0
  -25.4442   -4.5158  -28.9829 C   0  0  2  0  0  0  0  0  0  0  0  0
  -18.6924   -4.3570  -29.0269 C   0  0  0  0  0  0  0  0  0  0  0  0
  -19.5400   -6.9057  -35.2006 C   0  0  0  0  0  0  0  0  0  0  0  0
  -22.5140   -4.9194  -25.7002 N   0  0  0  0  0  0  0  0  0  0  0  0
  -23.0237   -4.5812  -30.5782 N   0  0  0  0  0  0  0  0  0  0  0  0
  -21.9362   -4.8392  -23.5580 N   0  0  0  0  0  0  0  0  0  0  0  0
  -21.5029   -3.5456  -31.8207 N   0  0  0  0  0  0  0  0  0  0  0  0
  -25.8349   -4.4455  -24.3196 N   0  3  0  0  0  0  0  0  0  0  0  0
  -24.4257   -1.2415  -30.3773 N   0  3  0  0  0  0  0  0  0  0  0  0
  -25.4134   -4.6499  -26.6255 N   0  0  0  0  0  0  0  0  0  0  0  0
  -25.3940   -3.1134  -29.3210 N   0  0  0  0  0  0  0  0  0  0  0  0
  -17.8058   -4.4031  -27.9145 O   0  0  0  0  0  0  0  0  0  0  0  0
  -19.0825   -7.5439  -34.0136 O   0  0  0  0  0  0  0  0  0  0  0  0
  -19.6286   -5.3258  -28.9422 F   0  0  0  0  0  0  0  0  0  0  0  0
  -17.9818   -4.5625  -30.1592 F   0  0  0  0  0  0  0  0  0  0  0  0
  -19.2884   -3.1497  -29.1237 F   0  0  0  0  0  0  0  0  0  0  0  0
  -20.8811   -6.7528  -35.1838 F   0  0  0  0  0  0  0  0  0  0  0  0
  -19.2225   -7.6811  -36.2623 F   0  0  0  0  0  0  0  0  0  0  0  0
  -18.9431   -5.7066  -35.3685 F   0  0  0  0  0  0  0  0  0  0  0  0
  -17.2575   -6.4812  -23.9192 H   0  0  0  0  0  0  0  0  0  0  0  0
  -20.5602   -8.9270  -29.9534 H   0  0  0  0  0  0  0  0  0  0  0  0
  -19.6366   -6.1758  -23.3382 H   0  0  0  0  0  0  0  0  0  0  0  0
  -21.7924   -6.8197  -29.5899 H   0  0  0  0  0  0  0  0  0  0  0  0
  -16.3825   -5.6476  -26.0791 H   0  0  0  0  0  0  0  0  0  0  0  0
  -19.2770   -9.2793  -32.0403 H   0  0  0  0  0  0  0  0  0  0  0  0
  -23.9678   -4.4683  -21.5213 H   0  0  0  0  0  0  0  0  0  0  0  0
  -21.7214   -0.6937  -32.3018 H   0  0  0  0  0  0  0  0  0  0  0  0
  -20.2890   -4.1822  -27.1074 H   0  0  0  0  0  0  0  0  0  0  0  0
  -20.4545   -5.3882  -33.4328 H   0  0  0  0  0  0  0  0  0  0  0  0
  -26.3756   -4.2493  -22.3507 H   0  0  0  0  0  0  0  0  0  0  0  0
  -23.7191    0.4857  -31.2286 H   0  0  0  0  0  0  0  0  0  0  0  0
  -26.9529   -6.0023  -28.5771 H   0  0  0  0  0  0  0  0  0  0  0  0
  -27.6428   -4.4394  -29.0447 H   0  0  0  0  0  0  0  0  0  0  0  0
  -27.1402   -3.4783  -26.8799 H   0  0  0  0  0  0  0  0  0  0  0  0
  -27.4719   -5.1702  -26.4290 H   0  0  0  0  0  0  0  0  0  0  0  0
  -24.2199   -5.8877  -27.8342 H   0  0  0  0  0  0  0  0  0  0  0  0
  -23.6524   -4.2049  -27.7441 H   0  0  0  0  0  0  0  0  0  0  0  0
  -25.1531   -5.1078  -29.8708 H   0  0  0  0  0  0  0  0  0  0  0  0
  -21.3532   -4.8494  -22.7313 H   0  0  0  0  0  0  0  0  0  0  0  0
  -20.6838   -3.4066  -32.3979 H   0  0  0  0  0  0  0  0  0  0  0  0
  -26.8182   -4.3506  -24.5748 H   0  0  0  0  0  0  0  0  0  0  0  0
  -25.1966   -0.7032  -29.9811 H   0  0  0  0  0  0  0  0  0  0  0  0
  -26.1268   -2.5134  -28.9638 H   0  0  0  0  0  0  0  0  0  0  0  0
  1  3  1  0  0  0  0
  1  5  2  0  0  0  0
  2  4  2  0  0  0  0
  2  6  1  0  0  0  0
  3 13  2  0  0  0  0
  4 14  1  0  0  0  0
  5 19  1  0  0  0  0
  6 20  2  0  0  0  0
  7 11  2  0  0  0  0
  7 17  1  0  0  0  0
  8 12  1  0  0  0  0
  8 18  2  0  0  0  0
  9 13  1  0  0  0  0
  9 19  2  0  0  0  0
 10 14  2  0  0  0  0
 10 20  1  0  0  0  0
 11 35  1  0  0  0  0
 12 36  2  0  0  0  0
 13 23  1  0  0  0  0
 14 24  1  0  0  0  0
 15 17  2  0  0  0  0
 15 21  1  0  0  0  0
 15 31  1  0  0  0  0
 16 18  1  0  0  0  0
 16 22  2  0  0  0  0
 16 32  1  0  0  0  0
 17 33  1  0  0  0  0
 18 34  1  0  0  0  0
 19 39  1  0  0  0  0
 20 40  1  0  0  0  0
 21 35  2  0  0  0  0
 21 37  1  0  0  0  0
 22 36  1  0  0  0  0
 22 38  1  0  0  0  0
 23 31  2  0  0  0  0
 23 33  1  0  0  0  0
 24 32  2  0  0  0  0
 24 34  1  0  0  0  0
 25 26  1  0  0  0  0
 25 28  1  0  0  0  0
 26 37  1  0  0  0  0
 27 28  1  0  0  0  0
 27 37  1  0  0  0  0
 28 38  1  0  0  0  0
 29 39  1  0  0  0  0
 29 41  1  0  0  0  0
 29 42  1  0  0  0  0
 29 43  1  0  0  0  0
 30 40  1  0  0  0  0
 30 44  1  0  0  0  0
 30 45  1  0  0  0  0
 30 46  1  0  0  0  0
  1 47  1  0  0  0  0
  2 48  1  0  0  0  0
  3 49  1  0  0  0  0
  4 50  1  0  0  0  0
  5 51  1  0  0  0  0
  6 52  1  0  0  0  0
  7 53  1  0  0  0  0
  8 54  1  0  0  0  0
  9 55  1  0  0  0  0
 10 56  1  0  0  0  0
 11 57  1  0  0  0  0
 12 58  1  0  0  0  0
 25 59  1  0  0  0  0
 25 60  1  0  0  0  0
 26 61  1  0  0  0  0
 26 62  1  0  0  0  0
 27 63  1  0  0  0  0
 27 64  1  0  0  0  0
 28 65  1  0  0  0  0
 33 66  1  0  0  0  0
 34 67  1  0  0  0  0
 35 68  1  0  0  0  0
 36 69  1  0  0  0  0
 38 70  1  0  0  0  0
M  CHG  2  35   1  36   1
M  END
> <SMILES>
FC(F)(F)Oc1cccc(c1)-c1nc2c(nccc2[nH]1)NC1CCN(C1)c1nccc2[nH]c(nc12)-c1cccc(c1)OC(F)(F)F

> <FORMATTED_ID>
H3D-003535

> <MOLFORMULA>
C30H22F6N8O2

> <Exact Mass>
640.18

> <XLogP>
8.65

> <TPSA_NOPS>
116.9

> <s_m_source_file>
ligprep_h3d.sdf

> <i_m_source_file_index>
4294

> <i_lp_mmshare_version>
55123

> <i_f3d_flags>
0

> <s_epik_input>
RkMoRikoRilPYzFbY0hdW2NIXVtjSF1jKFtjSF0xKS1jKG4yKVtuSF1jKGMyMylbY0hdW2NIXW5jM1tOSF1bQ0BASF00W0NIMl1bQ0gyXU4oW0NIMl00KWMobltjSF1bY0hdNSljKGM1NiluYyhbbkhdNiktYzdbY0hdW2NIXVtjSF1jKFtjSF03KU9DKEYpKEYpRg==

> <s_epik_cmdline>
J2VwaWtfcHl0aG9uJywgJy1waHQnLCAnMC41JywgJy1waCcsICc3LjUnLCAnLXRuJywgJzgnLCAnLW1hJywgJzUwMCcsICctaW1hZScsICc8aW5maWxlLm1hZT4nLCAnLW9tYWUnLCAnPG91dGZpbGUubWFlPic=

> <r_lp_tautomer_probability>
0.887829

> <r_epik_Ionization_Penalty>
0.417016

> <r_epik_Ionization_Penalty_Charging>
2.83159e-05

> <r_epik_Ionization_Penalty_Neutral>
0.416988

> <r_epik_State_Penalty>
0.406299

> <r_epik_Charging_Adjusted_Penalty>
0.406327

> <i_epik_Tot_Q>
2

> <i_epik_Tot_abs_Q>
2

> <s_lp_Force_Field>
S-OPLS

> <r_lp_Energy>
63.4238

> <b_lp_Chiralities_Consistent>
1

> <s_lp_Variant>
ligprep_h3d.sdf:4294-1

> <ROCS_ShapeQuery>
_7L13

> <ROCS_TanimotoCombo>
0.589 

> <ROCS_ShapeTanimoto>
0.506 

> <ROCS_ColorTanimoto>
0.083 

> <ROCS_RefTversky>
0.774 

> <ROCS_RefColorTversky>
0.218 

> <ROCS_RefTverskyCombo>
0.992 

> <ROCS_FitTversky>
0.594 

> <ROCS_FitColorTversky>
0.117 

> <ROCS_FitTverskyCombo>
0.712 

> <ROCS_ColorScore>
-2.064

> <ROCS_Overlap>
1306.353

> <ROCS_Rank>
457                 

$$$$
ligprep_h3d.sdf:5088_1848
  -OEChem-08212117123D

 65 69  0     0  0  0  0  0  0999 V2000
  -20.2097   -8.7425  -36.5440 C   0  0  0  0  0  0  0  0  0  0  0  0
  -19.1712   -8.2160  -37.3040 C   0  0  0  0  0  0  0  0  0  0  0  0
  -23.0895   -5.4106  -26.0977 C   0  0  0  0  0  0  0  0  0  0  0  0
  -21.8971   -3.4951  -25.2340 C   0  0  0  0  0  0  0  0  0  0  0  0
  -23.8697   -5.4460  -24.9421 C   0  0  0  0  0  0  0  0  0  0  0  0
  -22.6774   -3.5304  -24.0784 C   0  0  0  0  0  0  0  0  0  0  0  0
  -19.2616   -5.8324  -25.5424 C   0  0  0  0  0  0  0  0  0  0  0  0
  -18.1013   -3.7819  -26.0775 C   0  0  0  0  0  0  0  0  0  0  0  0
  -18.4250   -6.0186  -24.4419 C   0  0  0  0  0  0  0  0  0  0  0  0
  -17.2648   -3.9680  -24.9769 C   0  0  0  0  0  0  0  0  0  0  0  0
  -20.6951   -8.0307  -35.4526 C   0  0  0  0  0  0  0  0  0  0  0  0
  -21.6765   -4.2379  -28.7504 C   0  0  0  0  0  0  0  0  0  0  0  0
  -18.6566   -6.9839  -36.9340 C   0  0  0  0  0  0  0  0  0  0  0  0
  -22.1031   -4.4352  -26.2437 C   0  0  0  0  0  0  0  0  0  0  0  0
  -23.6637   -4.5059  -23.9324 C   0  0  0  0  0  0  0  0  0  0  0  0
  -19.0997   -4.7141  -26.3603 C   0  0  0  0  0  0  0  0  0  0  0  0
  -17.4267   -5.0864  -24.1591 C   0  0  0  0  0  0  0  0  0  0  0  0
  -21.2947   -4.3986  -27.4409 C   0  0  0  0  0  0  0  0  0  0  0  0
  -20.4716   -4.2861  -29.4768 C   0  0  0  0  0  0  0  0  0  0  0  0
  -20.1122   -6.8070  -35.1653 C   0  0  0  0  0  0  0  0  0  0  0  0
  -20.5326   -6.7520  -32.7480 C   0  0  0  0  0  0  0  0  0  0  0  0
  -20.5755   -4.6363  -34.0676 C   0  0  0  0  0  0  0  0  0  0  0  0
  -21.5726   -6.1755  -31.7963 C   0  0  0  0  0  0  0  0  0  0  0  0
  -21.6152   -4.0665  -33.1108 C   0  0  0  0  0  0  0  0  0  0  0  0
  -24.3137   -5.8510  -21.9021 C   0  0  0  0  0  0  0  0  0  0  0  0
  -25.9931   -4.3162  -22.9880 C   0  0  0  0  0  0  0  0  0  0  0  0
  -20.2942   -4.1635  -30.9615 C   0  0  0  0  0  0  0  0  0  0  0  0
  -24.4977   -4.5441  -22.6967 C   0  0  0  0  0  0  0  0  0  0  0  0
  -19.1020   -6.2633  -35.8804 N   0  0  0  0  0  0  0  0  0  0  0  0
  -19.4042   -4.4634  -28.6937 N   0  0  0  0  0  0  0  0  0  0  0  0
  -19.9371   -4.5279  -27.4617 N   0  0  0  0  0  0  0  0  0  0  0  0
  -20.6118   -6.1023  -34.0631 N   0  0  0  0  0  0  0  0  0  0  0  0
  -21.4750   -4.6735  -31.7401 N   0  3  0  0  0  0  0  0  0  0  0  0
  -16.6235   -5.2651  -23.1022 F   0  0  0  0  0  0  0  0  0  0  0  0
  -20.6394   -9.7062  -36.8011 H   0  0  0  0  0  0  0  0  0  0  0  0
  -18.7766   -8.7531  -38.1589 H   0  0  0  0  0  0  0  0  0  0  0  0
  -23.2620   -6.1506  -26.8757 H   0  0  0  0  0  0  0  0  0  0  0  0
  -21.1324   -2.7283  -25.3332 H   0  0  0  0  0  0  0  0  0  0  0  0
  -24.6357   -6.2098  -24.8366 H   0  0  0  0  0  0  0  0  0  0  0  0
  -22.5097   -2.7939  -23.2971 H   0  0  0  0  0  0  0  0  0  0  0  0
  -20.0351   -6.5674  -25.7515 H   0  0  0  0  0  0  0  0  0  0  0  0
  -17.9648   -2.9053  -26.7061 H   0  0  0  0  0  0  0  0  0  0  0  0
  -18.5502   -6.8896  -23.8054 H   0  0  0  0  0  0  0  0  0  0  0  0
  -16.4879   -3.2422  -24.7557 H   0  0  0  0  0  0  0  0  0  0  0  0
  -21.5058   -8.4338  -34.8543 H   0  0  0  0  0  0  0  0  0  0  0  0
  -22.6806   -4.1049  -29.1274 H   0  0  0  0  0  0  0  0  0  0  0  0
  -17.8461   -6.5295  -37.4943 H   0  0  0  0  0  0  0  0  0  0  0  0
  -19.5372   -6.5985  -32.3113 H   0  0  0  0  0  0  0  0  0  0  0  0
  -20.6799   -7.8353  -32.8562 H   0  0  0  0  0  0  0  0  0  0  0  0
  -20.7543   -4.2601  -35.0839 H   0  0  0  0  0  0  0  0  0  0  0  0
  -19.5843   -4.2824  -33.7564 H   0  0  0  0  0  0  0  0  0  0  0  0
  -22.5884   -6.4258  -32.1422 H   0  0  0  0  0  0  0  0  0  0  0  0
  -21.4488   -6.5610  -30.7702 H   0  0  0  0  0  0  0  0  0  0  0  0
  -21.5204   -2.9727  -33.0069 H   0  0  0  0  0  0  0  0  0  0  0  0
  -22.6313   -4.2957  -33.4691 H   0  0  0  0  0  0  0  0  0  0  0  0
  -24.5909   -6.7274  -22.4979 H   0  0  0  0  0  0  0  0  0  0  0  0
  -24.9276   -5.8582  -20.9949 H   0  0  0  0  0  0  0  0  0  0  0  0
  -23.2673   -5.9704  -21.5997 H   0  0  0  0  0  0  0  0  0  0  0  0
  -26.3733   -5.0902  -23.6640 H   0  0  0  0  0  0  0  0  0  0  0  0
  -26.1654   -3.3436  -23.4615 H   0  0  0  0  0  0  0  0  0  0  0  0
  -26.5921   -4.3499  -22.0713 H   0  0  0  0  0  0  0  0  0  0  0  0
  -20.1494   -3.1191  -31.2580 H   0  0  0  0  0  0  0  0  0  0  0  0
  -19.4225   -4.7315  -31.3040 H   0  0  0  0  0  0  0  0  0  0  0  0
  -24.1939   -3.7281  -22.0135 H   0  0  0  0  0  0  0  0  0  0  0  0
  -22.3274   -4.3494  -31.1934 H   0  0  0  0  0  0  0  0  0  0  0  0
  1  2  2  0  0  0  0
  1 11  1  0  0  0  0
  2 13  1  0  0  0  0
  3  5  1  0  0  0  0
  3 14  2  0  0  0  0
  4  6  2  0  0  0  0
  4 14  1  0  0  0  0
  5 15  2  0  0  0  0
  6 15  1  0  0  0  0
  7  9  1  0  0  0  0
  7 16  2  0  0  0  0
  8 10  2  0  0  0  0
  8 16  1  0  0  0  0
  9 17  2  0  0  0  0
 10 17  1  0  0  0  0
 11 20  2  0  0  0  0
 12 18  2  0  0  0  0
 12 19  1  0  0  0  0
 13 29  2  0  0  0  0
 14 18  1  0  0  0  0
 15 28  1  0  0  0  0
 16 31  1  0  0  0  0
 17 34  1  0  0  0  0
 18 31  1  0  0  0  0
 19 27  1  0  0  0  0
 19 30  2  0  0  0  0
 20 29  1  0  0  0  0
 20 32  1  0  0  0  0
 21 23  1  0  0  0  0
 21 32  1  0  0  0  0
 22 24  1  0  0  0  0
 22 32  1  0  0  0  0
 23 33  1  0  0  0  0
 24 33  1  0  0  0  0
 25 28  1  0  0  0  0
 26 28  1  0  0  0  0
 27 33  1  0  0  0  0
 30 31  1  0  0  0  0
  1 35  1  0  0  0  0
  2 36  1  0  0  0  0
  3 37  1  0  0  0  0
  4 38  1  0  0  0  0
  5 39  1  0  0  0  0
  6 40  1  0  0  0  0
  7 41  1  0  0  0  0
  8 42  1  0  0  0  0
  9 43  1  0  0  0  0
 10 44  1  0  0  0  0
 11 45  1  0  0  0  0
 12 46  1  0  0  0  0
 13 47  1  0  0  0  0
 21 48  1  0  0  0  0
 21 49  1  0  0  0  0
 22 50  1  0  0  0  0
 22 51  1  0  0  0  0
 23 52  1  0  0  0  0
 23 53  1  0  0  0  0
 24 54  1  0  0  0  0
 24 55  1  0  0  0  0
 25 56  1  0  0  0  0
 25 57  1  0  0  0  0
 25 58  1  0  0  0  0
 26 59  1  0  0  0  0
 26 60  1  0  0  0  0
 26 61  1  0  0  0  0
 27 62  1  0  0  0  0
 27 63  1  0  0  0  0
 28 64  1  0  0  0  0
 33 65  1  0  0  0  0
M  CHG  1  33   1
M  END
> <SMILES>
CC(C)c1ccc(cc1)-c1cc(nn1-c1ccc(cc1)F)CN1CCN(CC1)c1ccccn1

> <FORMATTED_ID>
H3D-012488

> <MOLFORMULA>
C28H30FN5

> <Exact Mass>
455.25

> <XLogP>
5.48

> <TPSA_NOPS>
37.2

> <s_m_source_file>
ligprep_h3d.sdf

> <i_m_source_file_index>
5088

> <i_lp_mmshare_version>
55123

> <i_f3d_flags>
0

> <s_epik_input>
W0NIM11bQ0hdKFtDSDNdKWMxW2NIXVtjSF1jKFtjSF1bY0hdMSktYzJbY0hdYyhubjItYzNbY0hdW2NIXWMoRilbY0hdW2NIXTMpW0NIMl1ONFtDSDJdW0NIMl1OKFtDSDJdW0NIMl00KWM1W2NIXVtjSF1bY0hdW2NIXW41

> <s_epik_cmdline>
J2VwaWtfcHl0aG9uJywgJy1waHQnLCAnMC41JywgJy1waCcsICc3LjUnLCAnLXRuJywgJzgnLCAnLW1hJywgJzUwMCcsICctaW1hZScsICc8aW5maWxlLm1hZT4nLCAnLW9tYWUnLCAnPG91dGZpbGUubWFlPic=

> <r_lp_tautomer_probability>
1

> <r_epik_Ionization_Penalty>
0.235379

> <r_epik_Ionization_Penalty_Charging>
0.234518

> <r_epik_Ionization_Penalty_Neutral>
0.000860443

> <r_epik_State_Penalty>
0.102743

> <r_epik_Charging_Adjusted_Penalty>
0.337261

> <i_epik_Tot_Q>
1

> <i_epik_Tot_abs_Q>
1

> <s_lp_Force_Field>
S-OPLS

> <r_lp_Energy>
60.2619

> <b_lp_Chiralities_Consistent>
1

> <s_lp_Variant>
ligprep_h3d.sdf:5088-1

> <ROCS_ShapeQuery>
_7L13

> <ROCS_TanimotoCombo>
0.719 

> <ROCS_ShapeTanimoto>
0.660 

> <ROCS_ColorTanimoto>
0.059 

> <ROCS_RefTversky>
0.773 

> <ROCS_RefColorTversky>
0.118 

> <ROCS_RefTverskyCombo>
0.891 

> <ROCS_FitTversky>
0.818 

> <ROCS_FitColorTversky>
0.107 

> <ROCS_FitTverskyCombo>
0.925 

> <ROCS_ColorScore>
-1.066

> <ROCS_Overlap>
1280.343

> <ROCS_Rank>
458                 

$$$$
ligprep_h3d.sdf:697_1812
  -OEChem-08212117123D

 59 63  0     0  0  0  0  0  0999 V2000
  -20.6351   -4.0357  -32.4638 C   0  0  0  0  0  0  0  0  0  0  0  0
  -19.9257   -6.2395  -31.7729 C   0  0  0  0  0  0  0  0  0  0  0  0
  -20.0849   -4.2545  -33.7267 C   0  0  0  0  0  0  0  0  0  0  0  0
  -19.3755   -6.4583  -33.0359 C   0  0  0  0  0  0  0  0  0  0  0  0
  -16.5840   -4.6761  -26.5863 C   0  0  0  0  0  0  0  0  0  0  0  0
  -23.0484   -4.3166  -28.7908 C   0  0  0  0  0  0  0  0  0  0  0  0
  -20.7081   -4.4306  -25.3585 C   0  0  0  0  0  0  0  0  0  0  0  0
  -16.9827   -6.0205  -26.4621 C   0  0  0  0  0  0  0  0  0  0  0  0
  -20.0897   -8.3797  -37.4122 C   0  0  0  0  0  0  0  0  0  0  0  0
  -19.3357   -7.2362  -37.3285 C   0  0  0  0  0  0  0  0  0  0  0  0
  -20.8979   -4.6187  -27.7613 C   0  0  0  0  0  0  0  0  0  0  0  0
  -20.5554   -5.0282  -31.4868 C   0  0  0  0  0  0  0  0  0  0  0  0
  -21.1285   -4.8000  -30.1708 C   0  0  0  0  0  0  0  0  0  0  0  0
  -19.4552   -5.4658  -34.0128 C   0  0  0  0  0  0  0  0  0  0  0  0
  -22.4875   -4.5375  -30.0511 C   0  0  0  0  0  0  0  0  0  0  0  0
  -20.3335   -4.8409  -29.0289 C   0  0  0  0  0  0  0  0  0  0  0  0
  -22.2770   -4.3518  -27.6323 C   0  0  0  0  0  0  0  0  0  0  0  0
  -20.1209   -4.6540  -26.5955 C   0  0  0  0  0  0  0  0  0  0  0  0
  -22.0645   -4.1774  -25.3324 C   0  0  0  0  0  0  0  0  0  0  0  0
  -17.7622   -3.9735  -26.6541 C   0  0  0  0  0  0  0  0  0  0  0  0
  -22.7419   -3.9365  -24.0699 C   0  0  0  0  0  0  0  0  0  0  0  0
  -23.3868   -4.4809  -31.2452 C   0  0  0  0  0  0  0  0  0  0  0  0
  -18.8731   -5.1302  -29.2363 C   0  0  0  0  0  0  0  0  0  0  0  0
  -18.0091   -2.5245  -26.7893 C   0  0  0  0  0  0  0  0  0  0  0  0
  -24.9017   -4.1221  -22.8083 C   0  0  0  0  0  0  0  0  0  0  0  0
  -18.8668   -5.6997  -35.3631 C   0  0  0  0  0  0  0  0  0  0  0  0
  -20.6371   -8.6595  -36.1909 N   0  0  0  0  0  0  0  0  0  0  0  0
  -18.3104   -6.1657  -26.4512 N   0  0  0  0  0  0  0  0  0  0  0  0
  -22.8496   -4.1345  -26.4332 N   0  0  0  0  0  0  0  0  0  0  0  0
  -20.2443   -7.7162  -35.3418 N   0  0  0  0  0  0  0  0  0  0  0  0
  -19.4642   -6.8637  -36.0259 N   0  0  0  0  0  0  0  0  0  0  0  0
  -18.7562   -4.9034  -26.5693 N   0  0  0  0  0  0  0  0  0  0  0  0
  -24.0870   -4.3168  -23.9861 N   0  0  0  0  0  0  0  0  0  0  0  0
  -22.1420   -3.3956  -23.1231 O   0  0  0  0  0  0  0  0  0  0  0  0
  -21.1222   -3.0860  -32.2559 H   0  0  0  0  0  0  0  0  0  0  0  0
  -19.8561   -7.0231  -31.0222 H   0  0  0  0  0  0  0  0  0  0  0  0
  -20.1507   -3.4753  -34.4814 H   0  0  0  0  0  0  0  0  0  0  0  0
  -18.8872   -7.4053  -33.2503 H   0  0  0  0  0  0  0  0  0  0  0  0
  -15.5817   -4.2748  -26.6212 H   0  0  0  0  0  0  0  0  0  0  0  0
  -24.1155   -4.1120  -28.7119 H   0  0  0  0  0  0  0  0  0  0  0  0
  -20.1288   -4.4523  -24.4395 H   0  0  0  0  0  0  0  0  0  0  0  0
  -16.3609   -6.9004  -26.3788 H   0  0  0  0  0  0  0  0  0  0  0  0
  -20.2637   -9.0066  -38.2735 H   0  0  0  0  0  0  0  0  0  0  0  0
  -18.7489   -6.6830  -38.0478 H   0  0  0  0  0  0  0  0  0  0  0  0
  -23.4266   -3.4598  -31.6397 H   0  0  0  0  0  0  0  0  0  0  0  0
  -23.0324   -5.1503  -32.0375 H   0  0  0  0  0  0  0  0  0  0  0  0
  -24.4040   -4.7982  -30.9877 H   0  0  0  0  0  0  0  0  0  0  0  0
  -18.6997   -6.2084  -29.1938 H   0  0  0  0  0  0  0  0  0  0  0  0
  -18.5379   -4.7522  -30.2061 H   0  0  0  0  0  0  0  0  0  0  0  0
  -18.2689   -4.6403  -28.4676 H   0  0  0  0  0  0  0  0  0  0  0  0
  -18.0734   -2.2296  -27.8495 H   0  0  0  0  0  0  0  0  0  0  0  0
  -18.9484   -2.2173  -26.2985 H   0  0  0  0  0  0  0  0  0  0  0  0
  -17.2104   -1.9233  -26.3219 H   0  0  0  0  0  0  0  0  0  0  0  0
  -24.8811   -5.0335  -22.1928 H   0  0  0  0  0  0  0  0  0  0  0  0
  -24.5069   -3.2771  -22.2252 H   0  0  0  0  0  0  0  0  0  0  0  0
  -25.9373   -3.9071  -23.1104 H   0  0  0  0  0  0  0  0  0  0  0  0
  -19.0054   -4.8310  -36.0263 H   0  0  0  0  0  0  0  0  0  0  0  0
  -17.7791   -5.8675  -35.3124 H   0  0  0  0  0  0  0  0  0  0  0  0
  -24.5466   -4.6960  -24.8076 H   0  0  0  0  0  0  0  0  0  0  0  0
  1  3  1  0  0  0  0
  1 12  2  0  0  0  0
  2  4  2  0  0  0  0
  2 12  1  0  0  0  0
  3 14  2  0  0  0  0
  4 14  1  0  0  0  0
  5  8  1  0  0  0  0
  5 20  2  0  0  0  0
  6 15  2  0  0  0  0
  6 17  1  0  0  0  0
  7 18  1  0  0  0  0
  7 19  2  0  0  0  0
  8 28  2  0  0  0  0
  9 10  2  0  0  0  0
  9 27  1  0  0  0  0
 10 31  1  0  0  0  0
 11 16  1  0  0  0  0
 11 17  1  0  0  0  0
 11 18  2  0  0  0  0
 12 13  1  0  0  0  0
 13 15  1  0  0  0  0
 13 16  2  0  0  0  0
 14 26  1  0  0  0  0
 15 22  1  0  0  0  0
 16 23  1  0  0  0  0
 17 29  2  0  0  0  0
 18 32  1  0  0  0  0
 19 21  1  0  0  0  0
 19 29  1  0  0  0  0
 20 24  1  0  0  0  0
 20 32  1  0  0  0  0
 21 33  1  0  0  0  0
 21 34  2  0  0  0  0
 25 33  1  0  0  0  0
 26 31  1  0  0  0  0
 27 30  2  0  0  0  0
 28 32  1  0  0  0  0
 30 31  1  0  0  0  0
  1 35  1  0  0  0  0
  2 36  1  0  0  0  0
  3 37  1  0  0  0  0
  4 38  1  0  0  0  0
  5 39  1  0  0  0  0
  6 40  1  0  0  0  0
  7 41  1  0  0  0  0
  8 42  1  0  0  0  0
  9 43  1  0  0  0  0
 10 44  1  0  0  0  0
 22 45  1  0  0  0  0
 22 46  1  0  0  0  0
 22 47  1  0  0  0  0
 23 48  1  0  0  0  0
 23 49  1  0  0  0  0
 23 50  1  0  0  0  0
 24 51  1  0  0  0  0
 24 52  1  0  0  0  0
 24 53  1  0  0  0  0
 25 54  1  0  0  0  0
 25 55  1  0  0  0  0
 25 56  1  0  0  0  0
 26 57  1  0  0  0  0
 26 58  1  0  0  0  0
 33 59  1  0  0  0  0
M  END
> <SMILES>
CNC(=O)c1cc(c2c(c(c(cc2n1)C)-c1ccc(cc1)Cn1ccnn1)C)-n1nccc1C

> <FORMATTED_ID>
H3D-004893

> <MOLFORMULA>
C26H25N7O

> <Exact Mass>
451.21

> <XLogP>
3.65

> <TPSA_NOPS>
90.5

> <s_m_source_file>
ligprep_h3d.sdf

> <i_m_source_file_index>
697

> <i_lp_mmshare_version>
55123

> <i_f3d_flags>
0

> <s_epik_input>
W0NIM11jMVtjSF1bY0hdbm4xLWMyW2NIXWMoQyg9TylbTkhdW0NIM10pbmMoYzIzKVtjSF1jKFtDSDNdKWMoYzNbQ0gzXSktYzRbY0hdW2NIXWMoW2NIXVtjSF00KVtDSDJdbjVbY0hdW2NIXW5uNQ==

> <s_epik_cmdline>
J2VwaWtfcHl0aG9uJywgJy1waHQnLCAnMC41JywgJy1waCcsICc3LjUnLCAnLXRuJywgJzgnLCAnLW1hJywgJzUwMCcsICctaW1hZScsICc8aW5maWxlLm1hZT4nLCAnLW9tYWUnLCAnPG91dGZpbGUubWFlPic=

> <r_lp_tautomer_probability>
1

> <r_epik_Ionization_Penalty>
1.86708e-05

> <r_epik_Ionization_Penalty_Charging>
0

> <r_epik_Ionization_Penalty_Neutral>
1.86708e-05

> <r_epik_State_Penalty>
-0

> <r_epik_Charging_Adjusted_Penalty>
0

> <i_epik_Tot_Q>
0

> <i_epik_Tot_abs_Q>
0

> <s_lp_Force_Field>
S-OPLS

> <r_lp_Energy>
50.4201

> <b_lp_Chiralities_Consistent>
1

> <s_lp_Variant>
ligprep_h3d.sdf:697-1

> <ROCS_ShapeQuery>
_7L13

> <ROCS_TanimotoCombo>
0.756 

> <ROCS_ShapeTanimoto>
0.646 

> <ROCS_ColorTanimoto>
0.110 

> <ROCS_RefTversky>
0.773 

> <ROCS_RefColorTversky>
0.222 

> <ROCS_RefTverskyCombo>
0.995 

> <ROCS_FitTversky>
0.796 

> <ROCS_FitColorTversky>
0.180 

> <ROCS_FitTverskyCombo>
0.976 

> <ROCS_ColorScore>
-2.020

> <ROCS_Overlap>
1282.120

> <ROCS_Rank>
459                 

$$$$
ligprep_h3d.sdf:2703_996
  -OEChem-08212117123D

 59 62  0     0  0  0  0  0  0999 V2000
  -19.0220   -5.1103  -24.2256 C   0  0  0  0  0  0  0  0  0  0  0  0
  -25.6495   -4.5831  -23.6024 C   0  0  0  0  0  0  0  0  0  0  0  0
  -25.8735   -4.3047  -24.9467 C   0  0  0  0  0  0  0  0  0  0  0  0
  -24.3502   -4.7568  -23.1228 C   0  0  0  0  0  0  0  0  0  0  0  0
  -24.8099   -4.1773  -25.8488 C   0  0  0  0  0  0  0  0  0  0  0  0
  -22.5307   -3.9011  -32.3481 C   0  0  0  0  0  0  0  0  0  0  0  0
  -23.2267   -2.6745  -30.3866 C   0  0  0  0  0  0  0  0  0  0  0  0
  -23.1719   -2.8033  -31.7744 C   0  0  0  0  0  0  0  0  0  0  0  0
  -21.9444   -4.8703  -31.5340 C   0  0  0  0  0  0  0  0  0  0  0  0
  -23.2714   -4.6369  -24.0178 C   0  0  0  0  0  0  0  0  0  0  0  0
  -23.5023   -4.3292  -25.3598 C   0  0  0  0  0  0  0  0  0  0  0  0
  -22.6404   -3.6436  -29.5724 C   0  0  0  0  0  0  0  0  0  0  0  0
  -21.9992   -4.7415  -30.1462 C   0  0  0  0  0  0  0  0  0  0  0  0
  -21.3315   -4.6150  -24.9229 C   0  0  0  0  0  0  0  0  0  0  0  0
  -20.4921   -4.0412  -27.5198 C   0  0  0  0  0  0  0  0  0  0  0  0
  -19.9398   -4.7190  -25.2447 C   0  0  0  0  0  0  0  0  0  0  0  0
  -19.5276   -4.4536  -26.5051 C   0  0  0  0  0  0  0  0  0  0  0  0
  -21.8089   -3.9364  -27.2452 C   0  0  0  0  0  0  0  0  0  0  0  0
  -23.8003   -1.7690  -32.6457 C   0  0  0  0  0  0  0  0  0  0  0  0
  -19.6360   -4.7409  -35.3541 C   0  0  0  0  0  0  0  0  0  0  0  0
  -19.6484   -7.9031  -33.8003 C   0  0  0  0  0  0  0  0  0  0  0  0
  -21.2625   -6.0383  -32.1673 C   0  0  0  0  0  0  0  0  0  0  0  0
  -19.8103   -4.9370  -33.8639 C   0  0  0  0  0  0  0  0  0  0  0  0
  -20.8387   -7.1511  -34.3545 C   0  0  0  0  0  0  0  0  0  0  0  0
  -18.1053   -4.5292  -26.9935 C   0  0  0  0  0  0  0  0  0  0  0  0
  -18.2757   -5.4289  -23.3966 N   0  0  0  0  0  0  0  0  0  0  0  0
  -21.9387   -4.8025  -23.7704 N   0  0  0  0  0  0  0  0  0  0  0  0
  -22.2337   -4.2601  -25.9360 N   0  0  0  0  0  0  0  0  0  0  0  0
  -22.7041   -3.5013  -28.1833 N   0  0  0  0  0  0  0  0  0  0  0  0
  -20.9879   -5.8450  -33.6171 N   0  3  0  0  0  0  0  0  0  0  0  0
  -21.4257   -5.6918  -29.3528 O   0  0  0  0  0  0  0  0  0  0  0  0
  -18.0316   -4.1909  -28.2938 F   0  0  0  0  0  0  0  0  0  0  0  0
  -17.3172   -3.6905  -26.2959 F   0  0  0  0  0  0  0  0  0  0  0  0
  -17.6175   -5.7758  -26.8554 F   0  0  0  0  0  0  0  0  0  0  0  0
  -26.4914   -4.6776  -22.9222 H   0  0  0  0  0  0  0  0  0  0  0  0
  -26.8928   -4.1875  -25.3066 H   0  0  0  0  0  0  0  0  0  0  0  0
  -24.1799   -4.9910  -22.0764 H   0  0  0  0  0  0  0  0  0  0  0  0
  -25.0285   -3.9822  -26.8907 H   0  0  0  0  0  0  0  0  0  0  0  0
  -22.4890   -4.0013  -33.4302 H   0  0  0  0  0  0  0  0  0  0  0  0
  -23.7279   -1.8179  -29.9413 H   0  0  0  0  0  0  0  0  0  0  0  0
  -20.1123   -3.7954  -28.5080 H   0  0  0  0  0  0  0  0  0  0  0  0
  -24.8456   -2.0284  -32.8538 H   0  0  0  0  0  0  0  0  0  0  0  0
  -23.7753   -0.7794  -32.1712 H   0  0  0  0  0  0  0  0  0  0  0  0
  -23.2680   -1.6762  -33.6015 H   0  0  0  0  0  0  0  0  0  0  0  0
  -19.4277   -5.6993  -35.8396 H   0  0  0  0  0  0  0  0  0  0  0  0
  -20.5407   -4.3218  -35.8066 H   0  0  0  0  0  0  0  0  0  0  0  0
  -18.8026   -4.0641  -35.5695 H   0  0  0  0  0  0  0  0  0  0  0  0
  -18.7318   -7.3253  -33.9535 H   0  0  0  0  0  0  0  0  0  0  0  0
  -19.7594   -8.0833  -32.7260 H   0  0  0  0  0  0  0  0  0  0  0  0
  -19.5254   -8.8711  -34.2971 H   0  0  0  0  0  0  0  0  0  0  0  0
  -20.2938   -6.2447  -31.6937 H   0  0  0  0  0  0  0  0  0  0  0  0
  -21.8681   -6.9504  -32.0860 H   0  0  0  0  0  0  0  0  0  0  0  0
  -20.0198   -3.9930  -33.3535 H   0  0  0  0  0  0  0  0  0  0  0  0
  -18.9359   -5.4155  -33.4141 H   0  0  0  0  0  0  0  0  0  0  0  0
  -21.7696   -7.7074  -34.2142 H   0  0  0  0  0  0  0  0  0  0  0  0
  -20.7073   -6.9094  -35.4128 H   0  0  0  0  0  0  0  0  0  0  0  0
  -23.5056   -3.0193  -27.8064 H   0  0  0  0  0  0  0  0  0  0  0  0
  -21.8086   -5.3724  -34.0297 H   0  0  0  0  0  0  0  0  0  0  0  0
  -21.0248   -6.3845  -29.8997 H   0  0  0  0  0  0  0  0  0  0  0  0
  1 16  1  0  0  0  0
  1 26  3  0  0  0  0
  2  3  2  0  0  0  0
  2  4  1  0  0  0  0
  3  5  1  0  0  0  0
  4 10  2  0  0  0  0
  5 11  2  0  0  0  0
  6  8  1  0  0  0  0
  6  9  2  0  0  0  0
  7  8  2  0  0  0  0
  7 12  1  0  0  0  0
  8 19  1  0  0  0  0
  9 13  1  0  0  0  0
  9 22  1  0  0  0  0
 10 11  1  0  0  0  0
 10 27  1  0  0  0  0
 11 28  1  0  0  0  0
 12 13  2  0  0  0  0
 12 29  1  0  0  0  0
 13 31  1  0  0  0  0
 14 16  1  0  0  0  0
 14 27  2  0  0  0  0
 14 28  1  0  0  0  0
 15 17  1  0  0  0  0
 15 18  2  0  0  0  0
 16 17  2  0  0  0  0
 17 25  1  0  0  0  0
 18 28  1  0  0  0  0
 18 29  1  0  0  0  0
 20 23  1  0  0  0  0
 21 24  1  0  0  0  0
 22 30  1  0  0  0  0
 23 30  1  0  0  0  0
 24 30  1  0  0  0  0
 25 32  1  0  0  0  0
 25 33  1  0  0  0  0
 25 34  1  0  0  0  0
  2 35  1  0  0  0  0
  3 36  1  0  0  0  0
  4 37  1  0  0  0  0
  5 38  1  0  0  0  0
  6 39  1  0  0  0  0
  7 40  1  0  0  0  0
 15 41  1  0  0  0  0
 19 42  1  0  0  0  0
 19 43  1  0  0  0  0
 19 44  1  0  0  0  0
 20 45  1  0  0  0  0
 20 46  1  0  0  0  0
 20 47  1  0  0  0  0
 21 48  1  0  0  0  0
 21 49  1  0  0  0  0
 21 50  1  0  0  0  0
 22 51  1  0  0  0  0
 22 52  1  0  0  0  0
 23 53  1  0  0  0  0
 23 54  1  0  0  0  0
 24 55  1  0  0  0  0
 24 56  1  0  0  0  0
 29 57  1  0  0  0  0
 30 58  1  0  0  0  0
 31 59  1  0  0  0  0
M  CHG  1  30   1
M  END
> <SMILES>
CCN(CC)Cc1cc(cc(c1O)Nc1cc(c(c2nc3ccccc3n12)C#N)C(F)(F)F)C

> <FORMATTED_ID>
H3D-008158

> <MOLFORMULA>
C25H24F3N5O

> <Exact Mass>
467.19

> <XLogP>
6.66

> <TPSA_NOPS>
76.6

> <s_m_source_file>
ligprep_h3d.sdf

> <i_m_source_file_index>
2703

> <i_lp_mmshare_version>
55123

> <i_f3d_flags>
0

> <s_epik_input>
W0NIM11bQ0gyXU4oW0NIMl1bQ0gzXSlbQ0gyXWMxW2NIXWMoW0NIM10pW2NIXWMoYzFbT0hdKVtOSF1jKFtjSF1jKEMoRikoRilGKWMyQyNOKW4oYzIzKWM0YyhuMylbY0hdW2NIXVtjSF1bY0hdNA==

> <s_epik_cmdline>
J2VwaWtfcHl0aG9uJywgJy1waHQnLCAnMC41JywgJy1waCcsICc3LjUnLCAnLXRuJywgJzgnLCAnLW1hJywgJzUwMCcsICctaW1hZScsICc8aW5maWxlLm1hZT4nLCAnLW9tYWUnLCAnPG91dGZpbGUubWFlPic=

> <r_lp_tautomer_probability>
1

> <r_epik_Ionization_Penalty>
0.0574974

> <r_epik_Ionization_Penalty_Charging>
0.0479841

> <r_epik_Ionization_Penalty_Neutral>
0.00951328

> <r_epik_State_Penalty>
-0

> <r_epik_Charging_Adjusted_Penalty>
0.0479841

> <i_epik_Tot_Q>
1

> <i_epik_Tot_abs_Q>
1

> <s_lp_Force_Field>
S-OPLS

> <r_lp_Energy>
62.8016

> <b_lp_Chiralities_Consistent>
1

> <s_lp_Variant>
ligprep_h3d.sdf:2703-1

> <ROCS_ShapeQuery>
_7L13

> <ROCS_TanimotoCombo>
0.787 

> <ROCS_ShapeTanimoto>
0.656 

> <ROCS_ColorTanimoto>
0.131 

> <ROCS_RefTversky>
0.773 

> <ROCS_RefColorTversky>
0.255 

> <ROCS_RefTverskyCombo>
1.028 

> <ROCS_FitTversky>
0.812 

> <ROCS_FitColorTversky>
0.212 

> <ROCS_FitTverskyCombo>
1.024 

> <ROCS_ColorScore>
-2.318

> <ROCS_Overlap>
1280.779

> <ROCS_Rank>
460                 

$$$$
ligprep_h3d.sdf:4581_1511
  -OEChem-08212117123D

 60 64  0     1  0  0  0  0  0999 V2000
  -18.9245   -4.8262  -26.6750 C   0  0  0  0  0  0  0  0  0  0  0  0
  -24.7728   -4.9373  -25.3601 C   0  0  0  0  0  0  0  0  0  0  0  0
  -23.3253   -4.1517  -23.5925 C   0  0  0  0  0  0  0  0  0  0  0  0
  -25.6659   -4.5533  -23.1483 C   0  0  0  0  0  0  0  0  0  0  0  0
  -18.4961   -4.6772  -27.9864 C   0  0  0  0  0  0  0  0  0  0  0  0
  -23.5102   -4.5415  -24.9190 C   0  0  0  0  0  0  0  0  0  0  0  0
  -21.1608   -4.4186  -27.5717 C   0  0  0  0  0  0  0  0  0  0  0  0
  -20.2960   -4.6848  -26.5151 C   0  0  0  0  0  0  0  0  0  0  0  0
  -25.8507   -4.9431  -24.4747 C   0  0  0  0  0  0  0  0  0  0  0  0
  -24.4031   -4.1575  -22.7071 C   0  0  0  0  0  0  0  0  0  0  0  0
  -20.6295   -4.2864  -28.8550 C   0  0  0  0  0  0  0  0  0  0  0  0
  -22.3952   -4.5354  -25.8347 C   0  0  0  0  0  0  0  0  0  0  0  0
  -23.4963   -2.9378  -30.8051 C   0  0  0  0  0  0  0  0  0  0  0  0
  -23.2159   -3.3985  -32.2325 C   0  0  0  0  0  0  0  0  0  0  0  0
  -22.9104   -3.8723  -29.7510 C   0  0  0  0  0  0  0  0  0  0  0  0
  -18.5837   -6.3692  -35.2274 C   0  0  0  0  0  0  0  0  0  0  0  0
  -20.2443   -7.8357  -34.2583 C   0  0  0  0  0  0  0  0  0  0  0  0
  -20.9118   -3.9034  -31.2934 C   0  0  0  0  0  0  0  0  0  0  0  0
  -19.5246   -5.1739  -35.1185 C   0  0  0  0  0  0  0  0  0  0  0  0
  -21.2333   -6.6830  -34.1212 C   0  0  0  0  0  0  0  0  0  0  0  0
  -21.9660   -4.2795  -32.3433 C   0  0  2  0  0  0  0  0  0  0  0  0
  -18.4196   -8.7531  -35.5365 C   0  0  0  0  0  0  0  0  0  0  0  0
  -21.3839   -4.2186  -33.7548 C   0  0  0  0  0  0  0  0  0  0  0  0
  -19.2941   -4.4177  -29.0517 N   0  0  0  0  0  0  0  0  0  0  0  0
  -22.4604   -4.3290  -27.1311 N   0  0  0  0  0  0  0  0  0  0  0  0
  -21.1121   -4.7546  -25.4156 N   0  0  0  0  0  0  0  0  0  0  0  0
  -21.4646   -4.0190  -29.9389 N   0  0  0  0  0  0  0  0  0  0  0  0
  -19.3342   -7.6212  -35.3910 N   0  0  0  0  0  0  0  0  0  0  0  0
  -20.4696   -5.3922  -33.9639 N   0  3  0  0  0  0  0  0  0  0  0  0
  -27.0632   -5.3232  -24.8985 F   0  0  0  0  0  0  0  0  0  0  0  0
  -24.2253   -3.7841  -21.4333 F   0  0  0  0  0  0  0  0  0  0  0  0
  -18.2508   -5.0328  -25.8547 H   0  0  0  0  0  0  0  0  0  0  0  0
  -24.9336   -5.2438  -26.3909 H   0  0  0  0  0  0  0  0  0  0  0  0
  -22.3469   -3.8412  -23.2332 H   0  0  0  0  0  0  0  0  0  0  0  0
  -26.5050   -4.5581  -22.4594 H   0  0  0  0  0  0  0  0  0  0  0  0
  -17.4404   -4.7682  -28.2264 H   0  0  0  0  0  0  0  0  0  0  0  0
  -23.0909   -1.9235  -30.6616 H   0  0  0  0  0  0  0  0  0  0  0  0
  -24.5857   -2.8536  -30.6546 H   0  0  0  0  0  0  0  0  0  0  0  0
  -24.0976   -3.9466  -32.6166 H   0  0  0  0  0  0  0  0  0  0  0  0
  -23.1106   -2.5108  -32.8873 H   0  0  0  0  0  0  0  0  0  0  0  0
  -23.1169   -3.4764  -28.7483 H   0  0  0  0  0  0  0  0  0  0  0  0
  -23.4070   -4.8475  -29.8305 H   0  0  0  0  0  0  0  0  0  0  0  0
  -17.9364   -6.2112  -36.0986 H   0  0  0  0  0  0  0  0  0  0  0  0
  -17.9324   -6.4113  -34.3442 H   0  0  0  0  0  0  0  0  0  0  0  0
  -19.6843   -7.9598  -33.3216 H   0  0  0  0  0  0  0  0  0  0  0  0
  -20.8176   -8.7572  -34.4164 H   0  0  0  0  0  0  0  0  0  0  0  0
  -20.0457   -4.5689  -31.4027 H   0  0  0  0  0  0  0  0  0  0  0  0
  -20.5592   -2.8766  -31.4594 H   0  0  0  0  0  0  0  0  0  0  0  0
  -18.9631   -4.2565  -34.9134 H   0  0  0  0  0  0  0  0  0  0  0  0
  -20.1267   -5.0410  -36.0249 H   0  0  0  0  0  0  0  0  0  0  0  0
  -21.8771   -6.5868  -35.0033 H   0  0  0  0  0  0  0  0  0  0  0  0
  -21.8525   -6.8083  -33.2268 H   0  0  0  0  0  0  0  0  0  0  0  0
  -22.2689   -5.3288  -32.1659 H   0  0  0  0  0  0  0  0  0  0  0  0
  -18.9990   -9.6802  -35.6577 H   0  0  0  0  0  0  0  0  0  0  0  0
  -17.7843   -8.5996  -36.4213 H   0  0  0  0  0  0  0  0  0  0  0  0
  -17.7870   -8.8308  -34.6399 H   0  0  0  0  0  0  0  0  0  0  0  0
  -20.7871   -3.3152  -33.9077 H   0  0  0  0  0  0  0  0  0  0  0  0
  -22.1652   -4.2802  -34.5174 H   0  0  0  0  0  0  0  0  0  0  0  0
  -20.8143   -4.9360  -24.4660 H   0  0  0  0  0  0  0  0  0  0  0  0
  -19.8983   -5.4745  -33.1116 H   0  0  0  0  0  0  0  0  0  0  0  0
  1  5  2  0  0  0  0
  1  8  1  0  0  0  0
  2  6  2  0  0  0  0
  2  9  1  0  0  0  0
  3  6  1  0  0  0  0
  3 10  2  0  0  0  0
  4  9  2  0  0  0  0
  4 10  1  0  0  0  0
  5 24  1  0  0  0  0
  6 12  1  0  0  0  0
  7  8  2  0  0  0  0
  7 11  1  0  0  0  0
  7 25  1  0  0  0  0
  8 26  1  0  0  0  0
  9 30  1  0  0  0  0
 10 31  1  0  0  0  0
 11 24  2  0  0  0  0
 11 27  1  0  0  0  0
 12 25  2  0  0  0  0
 12 26  1  0  0  0  0
 13 14  1  0  0  0  0
 13 15  1  0  0  0  0
 14 21  1  0  0  0  0
 15 27  1  0  0  0  0
 16 19  1  0  0  0  0
 16 28  1  0  0  0  0
 17 20  1  0  0  0  0
 17 28  1  0  0  0  0
 18 21  1  0  0  0  0
 18 27  1  0  0  0  0
 19 29  1  0  0  0  0
 20 29  1  0  0  0  0
 21 23  1  0  0  0  0
 22 28  1  0  0  0  0
 23 29  1  0  0  0  0
  1 32  1  0  0  0  0
  2 33  1  0  0  0  0
  3 34  1  0  0  0  0
  4 35  1  0  0  0  0
  5 36  1  0  0  0  0
 13 37  1  0  0  0  0
 13 38  1  0  0  0  0
 14 39  1  0  0  0  0
 14 40  1  0  0  0  0
 15 41  1  0  0  0  0
 15 42  1  0  0  0  0
 16 43  1  0  0  0  0
 16 44  1  0  0  0  0
 17 45  1  0  0  0  0
 17 46  1  0  0  0  0
 18 47  1  0  0  0  0
 18 48  1  0  0  0  0
 19 49  1  0  0  0  0
 19 50  1  0  0  0  0
 20 51  1  0  0  0  0
 20 52  1  0  0  0  0
 21 53  1  0  0  0  0
 22 54  1  0  0  0  0
 22 55  1  0  0  0  0
 22 56  1  0  0  0  0
 23 57  1  0  0  0  0
 23 58  1  0  0  0  0
 26 59  1  0  0  0  0
 29 60  1  0  0  0  0
M  CHG  1  29   1
M  END
> <SMILES>
CN1CCN(CC1)C[C@@H]1CCCN(C1)c1nccc2[nH]c(nc12)-c1cc(cc(c1)F)F

> <FORMATTED_ID>
H3D-004866

> <MOLFORMULA>
C23H28F2N6

> <Exact Mass>
426.23

> <XLogP>
3.63

> <TPSA_NOPS>
51.3

> <s_m_source_file>
ligprep_h3d.sdf

> <i_m_source_file_index>
4581

> <i_lp_mmshare_version>
55123

> <i_f3d_flags>
0

> <s_epik_input>
W0NIM11OMVtDSDJdW0NIMl1OKFtDSDJdW0NIMl0xKVtDSDJdW0NAQEhdMltDSDJdW0NIMl1bQ0gyXU4oW0NIMl0yKWMobltjSF1bY0hdMyljKGMzNCluYyhbbkhdNCktYzVbY0hdYyhGKVtjSF1jKEYpW2NIXTU=

> <s_epik_cmdline>
J2VwaWtfcHl0aG9uJywgJy1waHQnLCAnMC41JywgJy1waCcsICc3LjUnLCAnLXRuJywgJzgnLCAnLW1hJywgJzUwMCcsICctaW1hZScsICc8aW5maWxlLm1hZT4nLCAnLW9tYWUnLCAnPG91dGZpbGUubWFlPic=

> <r_lp_tautomer_probability>
0.742559

> <r_epik_Ionization_Penalty>
0.202342

> <r_epik_Ionization_Penalty_Charging>
0.201131

> <r_epik_Ionization_Penalty_Neutral>
0.00121079

> <r_epik_State_Penalty>
0.18912

> <r_epik_Charging_Adjusted_Penalty>
0.390252

> <i_epik_Tot_Q>
1

> <i_epik_Tot_abs_Q>
1

> <s_lp_Force_Field>
S-OPLS

> <r_lp_Energy>
71.7784

> <b_lp_Chiralities_Consistent>
1

> <s_lp_Variant>
ligprep_h3d.sdf:4581-1

> <ROCS_ShapeQuery>
_7L13

> <ROCS_TanimotoCombo>
0.939 

> <ROCS_ShapeTanimoto>
0.704 

> <ROCS_ColorTanimoto>
0.234 

> <ROCS_RefTversky>
0.773 

> <ROCS_RefColorTversky>
0.418 

> <ROCS_RefTverskyCombo>
1.191 

> <ROCS_FitTversky>
0.888 

> <ROCS_FitColorTversky>
0.348 

> <ROCS_FitTverskyCombo>
1.236 

> <ROCS_ColorScore>
-3.802

> <ROCS_Overlap>
1274.903

> <ROCS_Rank>
461                 

$$$$
ligprep_h3d.sdf:1360_748
  -OEChem-08212117123D

 65 69  0     1  0  0  0  0  0999 V2000
  -20.3227   -3.9808  -31.4281 C   0  0  0  0  0  0  0  0  0  0  0  0
  -20.8845   -6.3214  -31.2208 C   0  0  0  0  0  0  0  0  0  0  0  0
  -19.8292   -4.2129  -32.7119 C   0  0  0  0  0  0  0  0  0  0  0  0
  -20.3910   -6.5536  -32.5046 C   0  0  0  0  0  0  0  0  0  0  0  0
  -16.7005   -4.9702  -25.9195 C   0  0  0  0  0  0  0  0  0  0  0  0
  -23.2060   -4.2223  -27.8932 C   0  0  0  0  0  0  0  0  0  0  0  0
  -20.7600   -4.5123  -24.5461 C   0  0  0  0  0  0  0  0  0  0  0  0
  -17.1694   -6.2919  -25.7970 C   0  0  0  0  0  0  0  0  0  0  0  0
  -21.0419   -4.6573  -26.9429 C   0  0  0  0  0  0  0  0  0  0  0  0
  -20.8503   -5.0350  -30.6825 C   0  0  0  0  0  0  0  0  0  0  0  0
  -21.3645   -4.7931  -29.3447 C   0  0  0  0  0  0  0  0  0  0  0  0
  -19.8634   -5.4993  -33.2502 C   0  0  0  0  0  0  0  0  0  0  0  0
  -22.7018   -4.4571  -29.1748 C   0  0  0  0  0  0  0  0  0  0  0  0
  -20.5345   -4.8934  -28.2318 C   0  0  0  0  0  0  0  0  0  0  0  0
  -22.3988   -4.3159  -26.7629 C   0  0  0  0  0  0  0  0  0  0  0  0
  -20.2288   -4.7514  -25.8053 C   0  0  0  0  0  0  0  0  0  0  0  0
  -22.0985   -4.1845  -24.4699 C   0  0  0  0  0  0  0  0  0  0  0  0
  -17.8391   -4.2023  -25.9382 C   0  0  0  0  0  0  0  0  0  0  0  0
  -19.3405   -5.7453  -34.6105 C   0  0  0  0  0  0  0  0  0  0  0  0
  -22.7178   -3.9233  -23.1819 C   0  0  0  0  0  0  0  0  0  0  0  0
  -19.3531   -7.1002  -35.2330 C   0  0  0  0  0  0  0  0  0  0  0  0
  -18.3671   -6.8310  -36.3373 C   0  0  0  0  0  0  0  0  0  0  0  0
  -23.6367   -4.3344  -30.3361 C   0  0  0  0  0  0  0  0  0  0  0  0
  -19.1006   -5.2607  -28.4933 C   0  0  0  0  0  0  0  0  0  0  0  0
  -18.0090   -2.7401  -26.0479 C   0  0  0  0  0  0  0  0  0  0  0  0
  -26.4601   -5.1621  -20.3089 C   0  0  0  0  0  0  0  0  0  0  0  0
  -24.8403   -4.0055  -21.8480 C   0  0  0  0  0  0  0  0  0  0  0  0
  -25.9593   -5.0385  -21.7417 C   0  0  2  0  0  0  0  0  0  0  0  0
  -18.5020   -6.3632  -25.7415 N   0  0  0  0  0  0  0  0  0  0  0  0
  -22.9170   -4.0832  -25.5421 N   0  0  0  0  0  0  0  0  0  0  0  0
  -18.8620   -4.8128  -35.3729 N   0  0  0  0  0  0  0  0  0  0  0  0
  -18.8802   -5.0766  -25.8296 N   0  0  0  0  0  0  0  0  0  0  0  0
  -24.0785   -4.2294  -23.0557 N   0  0  0  0  0  0  0  0  0  0  0  0
  -22.0566   -3.4294  -22.2503 O   0  0  0  0  0  0  0  0  0  0  0  0
  -18.4792   -5.4288  -36.5895 O   0  0  0  0  0  0  0  0  0  0  0  0
  -27.0438   -4.6225  -22.5696 O   0  0  0  0  0  0  0  0  0  0  0  0
  -20.2891   -2.9724  -31.0224 H   0  0  0  0  0  0  0  0  0  0  0  0
  -21.2926   -7.1535  -30.6520 H   0  0  0  0  0  0  0  0  0  0  0  0
  -19.4202   -3.3842  -33.2842 H   0  0  0  0  0  0  0  0  0  0  0  0
  -20.4225   -7.5599  -32.9143 H   0  0  0  0  0  0  0  0  0  0  0  0
  -15.6790   -4.6248  -25.9846 H   0  0  0  0  0  0  0  0  0  0  0  0
  -24.2567   -3.9598  -27.7749 H   0  0  0  0  0  0  0  0  0  0  0  0
  -20.1519   -4.5785  -23.6482 H   0  0  0  0  0  0  0  0  0  0  0  0
  -16.5954   -7.2060  -25.7456 H   0  0  0  0  0  0  0  0  0  0  0  0
  -19.0399   -7.8962  -34.5549 H   0  0  0  0  0  0  0  0  0  0  0  0
  -20.3566   -7.2998  -35.6215 H   0  0  0  0  0  0  0  0  0  0  0  0
  -17.3383   -7.0469  -36.0282 H   0  0  0  0  0  0  0  0  0  0  0  0
  -18.5919   -7.3945  -37.2469 H   0  0  0  0  0  0  0  0  0  0  0  0
  -23.6326   -3.3075  -30.7172 H   0  0  0  0  0  0  0  0  0  0  0  0
  -23.3476   -5.0118  -31.1479 H   0  0  0  0  0  0  0  0  0  0  0  0
  -24.6607   -4.5982  -30.0470 H   0  0  0  0  0  0  0  0  0  0  0  0
  -18.9864   -6.3473  -28.4692 H   0  0  0  0  0  0  0  0  0  0  0  0
  -18.7780   -4.8888  -29.4697 H   0  0  0  0  0  0  0  0  0  0  0  0
  -18.4440   -4.8154  -27.7405 H   0  0  0  0  0  0  0  0  0  0  0  0
  -18.0927   -2.4279  -27.1018 H   0  0  0  0  0  0  0  0  0  0  0  0
  -18.9122   -2.3878  -25.5212 H   0  0  0  0  0  0  0  0  0  0  0  0
  -17.1623   -2.1906  -25.6018 H   0  0  0  0  0  0  0  0  0  0  0  0
  -26.8097   -4.1988  -19.9251 H   0  0  0  0  0  0  0  0  0  0  0  0
  -27.2790   -5.8869  -20.2409 H   0  0  0  0  0  0  0  0  0  0  0  0
  -25.6617   -5.5276  -19.6540 H   0  0  0  0  0  0  0  0  0  0  0  0
  -25.2498   -2.9900  -21.8768 H   0  0  0  0  0  0  0  0  0  0  0  0
  -24.1635   -4.0787  -20.9905 H   0  0  0  0  0  0  0  0  0  0  0  0
  -25.6159   -6.0157  -22.1004 H   0  0  0  0  0  0  0  0  0  0  0  0
  -24.5863   -4.5713  -23.8650 H   0  0  0  0  0  0  0  0  0  0  0  0
  -27.7266   -5.3064  -22.4926 H   0  0  0  0  0  0  0  0  0  0  0  0
  1  3  1  0  0  0  0
  1 10  2  0  0  0  0
  2  4  2  0  0  0  0
  2 10  1  0  0  0  0
  3 12  2  0  0  0  0
  4 12  1  0  0  0  0
  5  8  1  0  0  0  0
  5 18  2  0  0  0  0
  6 13  2  0  0  0  0
  6 15  1  0  0  0  0
  7 16  1  0  0  0  0
  7 17  2  0  0  0  0
  8 29  2  0  0  0  0
  9 14  1  0  0  0  0
  9 15  1  0  0  0  0
  9 16  2  0  0  0  0
 10 11  1  0  0  0  0
 11 13  1  0  0  0  0
 11 14  2  0  0  0  0
 12 19  1  0  0  0  0
 13 23  1  0  0  0  0
 14 24  1  0  0  0  0
 15 30  2  0  0  0  0
 16 32  1  0  0  0  0
 17 20  1  0  0  0  0
 17 30  1  0  0  0  0
 18 25  1  0  0  0  0
 18 32  1  0  0  0  0
 19 21  1  0  0  0  0
 19 31  2  0  0  0  0
 20 33  1  0  0  0  0
 20 34  2  0  0  0  0
 21 22  1  0  0  0  0
 22 35  1  0  0  0  0
 26 28  1  0  0  0  0
 27 28  1  0  0  0  0
 27 33  1  0  0  0  0
 28 36  1  0  0  0  0
 29 32  1  0  0  0  0
 31 35  1  0  0  0  0
  1 37  1  0  0  0  0
  2 38  1  0  0  0  0
  3 39  1  0  0  0  0
  4 40  1  0  0  0  0
  5 41  1  0  0  0  0
  6 42  1  0  0  0  0
  7 43  1  0  0  0  0
  8 44  1  0  0  0  0
 21 45  1  0  0  0  0
 21 46  1  0  0  0  0
 22 47  1  0  0  0  0
 22 48  1  0  0  0  0
 23 49  1  0  0  0  0
 23 50  1  0  0  0  0
 23 51  1  0  0  0  0
 24 52  1  0  0  0  0
 24 53  1  0  0  0  0
 24 54  1  0  0  0  0
 25 55  1  0  0  0  0
 25 56  1  0  0  0  0
 25 57  1  0  0  0  0
 26 58  1  0  0  0  0
 26 59  1  0  0  0  0
 26 60  1  0  0  0  0
 27 61  1  0  0  0  0
 27 62  1  0  0  0  0
 28 63  1  0  0  0  0
 33 64  1  0  0  0  0
 36 65  1  0  0  0  0
M  END
> <SMILES>
C[C@@H](O)CNC(=O)c1cc(c2c(c(c(cc2n1)C)-c1ccc(cc1)C1=NOCC1)C)-n1nccc1C

> <FORMATTED_ID>
H3D-009184

> <MOLFORMULA>
C28H29N5O3

> <Exact Mass>
483.23

> <XLogP>
4.14

> <TPSA_NOPS>
101.6

> <s_m_source_file>
ligprep_h3d.sdf

> <i_m_source_file_index>
1360

> <i_lp_mmshare_version>
55123

> <i_f3d_flags>
0

> <s_epik_input>
W0NIM11jMVtjSF1bY0hdbm4xLWMyW2NIXWMoQyg9TylbTkhdW0NIMl1bQ0BASF0oW0NIM10pW09IXSluYyhjMjMpW2NIXWMoW0NIM10pYyhjM1tDSDNdKS1jNFtjSF1bY0hdYyhbY0hdW2NIXTQpQzU9Tk9bQ0gyXVtDSDJdNQ==

> <s_epik_cmdline>
J2VwaWtfcHl0aG9uJywgJy1waHQnLCAnMC41JywgJy1waCcsICc3LjUnLCAnLXRuJywgJzgnLCAnLW1hJywgJzUwMCcsICctaW1hZScsICc8aW5maWxlLm1hZT4nLCAnLW9tYWUnLCAnPG91dGZpbGUubWFlPic=

> <r_lp_tautomer_probability>
1

> <r_epik_Ionization_Penalty>
1.6282e-05

> <r_epik_Ionization_Penalty_Charging>
0

> <r_epik_Ionization_Penalty_Neutral>
1.6282e-05

> <r_epik_State_Penalty>
-0

> <r_epik_Charging_Adjusted_Penalty>
0

> <i_epik_Tot_Q>
0

> <i_epik_Tot_abs_Q>
0

> <s_epik_Chemistry_Notes>
This compound has an imine and may undergo hydrolysis.

> <s_lp_Force_Field>
S-OPLS

> <r_lp_Energy>
36.4851

> <b_lp_Chiralities_Consistent>
1

> <s_lp_Variant>
ligprep_h3d.sdf:1360-1

> <ROCS_ShapeQuery>
_7L13

> <ROCS_TanimotoCombo>
0.760 

> <ROCS_ShapeTanimoto>
0.625 

> <ROCS_ColorTanimoto>
0.135 

> <ROCS_RefTversky>
0.773 

> <ROCS_RefColorTversky>
0.273 

> <ROCS_RefTverskyCombo>
1.046 

> <ROCS_FitTversky>
0.765 

> <ROCS_FitColorTversky>
0.211 

> <ROCS_FitTverskyCombo>
0.976 

> <ROCS_ColorScore>
-2.501

> <ROCS_Overlap>
1284.690

> <ROCS_Rank>
462                 

$$$$
ligprep_h3d.sdf:5363_844
  -OEChem-08212117123D

 72 77  0     0  0  0  0  0  0999 V2000
  -19.7917   -6.6917  -33.9192 C   0  0  0  0  0  0  0  0  0  0  0  0
  -18.5254   -4.7148  -34.4893 C   0  0  0  0  0  0  0  0  0  0  0  0
  -19.7579   -7.0981  -35.2530 C   0  0  0  0  0  0  0  0  0  0  0  0
  -18.4915   -5.1212  -35.8232 C   0  0  0  0  0  0  0  0  0  0  0  0
  -16.6397   -6.9215  -22.7711 C   0  0  0  0  0  0  0  0  0  0  0  0
  -18.2776   -4.1679  -24.4059 C   0  0  0  0  0  0  0  0  0  0  0  0
  -22.8315   -4.0797  -29.1759 C   0  0  0  0  0  0  0  0  0  0  0  0
  -20.0652   -4.4709  -29.5370 C   0  0  0  0  0  0  0  0  0  0  0  0
  -16.4944   -6.4501  -21.4806 C   0  0  0  0  0  0  0  0  0  0  0  0
  -17.5277   -4.3547  -21.9367 C   0  0  0  0  0  0  0  0  0  0  0  0
  -17.7007   -4.7782  -23.2538 C   0  0  0  0  0  0  0  0  0  0  0  0
  -21.9944   -4.2831  -28.0837 C   0  0  0  0  0  0  0  0  0  0  0  0
  -19.1755   -5.5000  -33.5372 C   0  0  0  0  0  0  0  0  0  0  0  0
  -17.2595   -6.0412  -23.6487 C   0  0  0  0  0  0  0  0  0  0  0  0
  -20.6228   -4.4771  -28.2652 C   0  0  0  0  0  0  0  0  0  0  0  0
  -22.2794   -4.0721  -30.4566 C   0  0  0  0  0  0  0  0  0  0  0  0
  -20.9049   -4.2664  -30.6352 C   0  0  0  0  0  0  0  0  0  0  0  0
  -19.1077   -6.3129  -36.2051 C   0  0  0  0  0  0  0  0  0  0  0  0
  -18.1758   -5.0554  -25.4519 C   0  0  0  0  0  0  0  0  0  0  0  0
  -18.6256   -4.8857  -26.8406 C   0  0  0  0  0  0  0  0  0  0  0  0
  -23.3613   -5.4874  -26.3405 C   0  0  0  0  0  0  0  0  0  0  0  0
  -22.9987   -2.9936  -26.1628 C   0  0  0  0  0  0  0  0  0  0  0  0
  -21.0020   -4.5783  -25.9538 C   0  0  0  0  0  0  0  0  0  0  0  0
  -23.8426   -5.5115  -24.8940 C   0  0  0  0  0  0  0  0  0  0  0  0
  -23.4815   -3.0355  -24.7172 C   0  0  0  0  0  0  0  0  0  0  0  0
  -22.3838   -4.3297  -26.6226 C   0  0  0  0  0  0  0  0  0  0  0  0
  -23.2905   -2.5269  -31.9552 C   0  0  0  0  0  0  0  0  0  0  0  0
  -19.2109   -5.0626  -32.1023 C   0  0  0  0  0  0  0  0  0  0  0  0
  -25.0573   -4.1868  -23.1676 C   0  0  0  0  0  0  0  0  0  0  0  0
  -26.4330   -4.8206  -23.2289 C   0  0  0  0  0  0  0  0  0  0  0  0
  -17.5596   -6.1839  -24.9843 N   0  0  0  0  0  0  0  0  0  0  0  0
  -16.9272   -5.2353  -21.1319 N   0  3  0  0  0  0  0  0  0  0  0  0
  -19.9841   -4.6614  -27.0241 N   0  0  0  0  0  0  0  0  0  0  0  0
  -24.4533   -4.1767  -24.5452 N   0  3  0  0  0  0  0  0  0  0  0  0
  -17.7538   -4.9608  -27.7015 O   0  0  0  0  0  0  0  0  0  0  0  0
  -27.0243   -4.8007  -21.9364 O   0  0  0  0  0  0  0  0  0  0  0  0
  -23.0928   -3.8742  -31.5323 O   0  0  0  0  0  0  0  0  0  0  0  0
  -20.3687   -4.2588  -31.8894 O   0  0  0  0  0  0  0  0  0  0  0  0
  -19.0728   -6.7044  -37.4856 F   0  0  0  0  0  0  0  0  0  0  0  0
  -20.3014   -7.3098  -33.1847 H   0  0  0  0  0  0  0  0  0  0  0  0
  -18.0422   -3.7849  -34.2009 H   0  0  0  0  0  0  0  0  0  0  0  0
  -20.2369   -8.0261  -35.5504 H   0  0  0  0  0  0  0  0  0  0  0  0
  -17.9858   -4.5099  -36.5647 H   0  0  0  0  0  0  0  0  0  0  0  0
  -16.2955   -7.9025  -23.0724 H   0  0  0  0  0  0  0  0  0  0  0  0
  -18.7195   -3.1815  -24.4572 H   0  0  0  0  0  0  0  0  0  0  0  0
  -23.8979   -3.9298  -29.0374 H   0  0  0  0  0  0  0  0  0  0  0  0
  -19.0057   -4.6186  -29.7075 H   0  0  0  0  0  0  0  0  0  0  0  0
  -16.0305   -7.0249  -20.6898 H   0  0  0  0  0  0  0  0  0  0  0  0
  -17.8242   -3.4062  -21.5117 H   0  0  0  0  0  0  0  0  0  0  0  0
  -22.8944   -6.4515  -26.5809 H   0  0  0  0  0  0  0  0  0  0  0  0
  -24.2389   -5.4081  -26.9964 H   0  0  0  0  0  0  0  0  0  0  0  0
  -23.8496   -2.7286  -26.8051 H   0  0  0  0  0  0  0  0  0  0  0  0
  -22.2739   -2.1771  -26.2771 H   0  0  0  0  0  0  0  0  0  0  0  0
  -20.7084   -3.7687  -25.2753 H   0  0  0  0  0  0  0  0  0  0  0  0
  -20.9691   -5.5157  -25.3861 H   0  0  0  0  0  0  0  0  0  0  0  0
  -24.6203   -6.2715  -24.7641 H   0  0  0  0  0  0  0  0  0  0  0  0
  -23.0297   -5.7019  -24.1853 H   0  0  0  0  0  0  0  0  0  0  0  0
  -22.6621   -3.1853  -24.0065 H   0  0  0  0  0  0  0  0  0  0  0  0
  -24.0134   -2.1116  -24.4663 H   0  0  0  0  0  0  0  0  0  0  0  0
  -23.9582   -2.5100  -32.8201 H   0  0  0  0  0  0  0  0  0  0  0  0
  -22.3275   -2.0810  -32.2162 H   0  0  0  0  0  0  0  0  0  0  0  0
  -23.7426   -1.9604  -31.1376 H   0  0  0  0  0  0  0  0  0  0  0  0
  -19.2475   -5.9267  -31.4302 H   0  0  0  0  0  0  0  0  0  0  0  0
  -18.3179   -4.4797  -31.8526 H   0  0  0  0  0  0  0  0  0  0  0  0
  -24.3700   -4.7543  -22.5338 H   0  0  0  0  0  0  0  0  0  0  0  0
  -25.1061   -3.1454  -22.8388 H   0  0  0  0  0  0  0  0  0  0  0  0
  -27.0766   -4.2473  -23.9035 H   0  0  0  0  0  0  0  0  0  0  0  0
  -26.3861   -5.8556  -23.5829 H   0  0  0  0  0  0  0  0  0  0  0  0
  -17.3528   -7.0050  -25.5365 H   0  0  0  0  0  0  0  0  0  0  0  0
  -16.7863   -4.9536  -20.1611 H   0  0  0  0  0  0  0  0  0  0  0  0
  -25.2305   -4.0166  -25.2007 H   0  0  0  0  0  0  0  0  0  0  0  0
  -27.8986   -5.2138  -22.0222 H   0  0  0  0  0  0  0  0  0  0  0  0
  1  3  1  0  0  0  0
  1 13  2  0  0  0  0
  2  4  2  0  0  0  0
  2 13  1  0  0  0  0
  3 18  2  0  0  0  0
  4 18  1  0  0  0  0
  5  9  1  0  0  0  0
  5 14  2  0  0  0  0
  6 11  1  0  0  0  0
  6 19  2  0  0  0  0
  7 12  1  0  0  0  0
  7 16  2  0  0  0  0
  8 15  1  0  0  0  0
  8 17  2  0  0  0  0
  9 32  2  0  0  0  0
 10 11  2  0  0  0  0
 10 32  1  0  0  0  0
 11 14  1  0  0  0  0
 12 15  2  0  0  0  0
 12 26  1  0  0  0  0
 13 28  1  0  0  0  0
 14 31  1  0  0  0  0
 15 33  1  0  0  0  0
 16 17  1  0  0  0  0
 16 37  1  0  0  0  0
 17 38  1  0  0  0  0
 18 39  1  0  0  0  0
 19 20  1  0  0  0  0
 19 31  1  0  0  0  0
 20 33  1  0  0  0  0
 20 35  2  0  0  0  0
 21 24  1  0  0  0  0
 21 26  1  0  0  0  0
 22 25  1  0  0  0  0
 22 26  1  0  0  0  0
 23 26  1  0  0  0  0
 23 33  1  0  0  0  0
 24 34  1  0  0  0  0
 25 34  1  0  0  0  0
 27 37  1  0  0  0  0
 28 38  1  0  0  0  0
 29 30  1  0  0  0  0
 29 34  1  0  0  0  0
 30 36  1  0  0  0  0
  1 40  1  0  0  0  0
  2 41  1  0  0  0  0
  3 42  1  0  0  0  0
  4 43  1  0  0  0  0
  5 44  1  0  0  0  0
  6 45  1  0  0  0  0
  7 46  1  0  0  0  0
  8 47  1  0  0  0  0
  9 48  1  0  0  0  0
 10 49  1  0  0  0  0
 21 50  1  0  0  0  0
 21 51  1  0  0  0  0
 22 52  1  0  0  0  0
 22 53  1  0  0  0  0
 23 54  1  0  0  0  0
 23 55  1  0  0  0  0
 24 56  1  0  0  0  0
 24 57  1  0  0  0  0
 25 58  1  0  0  0  0
 25 59  1  0  0  0  0
 27 60  1  0  0  0  0
 27 61  1  0  0  0  0
 27 62  1  0  0  0  0
 28 63  1  0  0  0  0
 28 64  1  0  0  0  0
 29 65  1  0  0  0  0
 29 66  1  0  0  0  0
 30 67  1  0  0  0  0
 30 68  1  0  0  0  0
 31 69  1  0  0  0  0
 32 70  1  0  0  0  0
 34 71  1  0  0  0  0
 36 72  1  0  0  0  0
M  CHG  2  32   1  34   1
M  END
> <SMILES>
COc1cc2c(cc1OCc1ccc(cc1)F)N(CC12CCN(CCO)CC1)C(=O)c1cc2cnccc2[nH]1

> <FORMATTED_ID>
H3D-015133

> <MOLFORMULA>
C30H31FN4O4

> <Exact Mass>
530.23

> <XLogP>
4.48

> <TPSA_NOPS>
90.9

> <s_m_source_file>
ligprep_h3d.sdf

> <i_m_source_file_index>
5363

> <i_lp_mmshare_version>
55123

> <i_f3d_flags>
0

> <s_epik_input>
W2NIXTFbY0hdYyhGKVtjSF1bY0hdYzFbQ0gyXU9jKGMoW2NIXTIpT1tDSDNdKVtjSF1jKGMyQzM0W0NIMl1bQ0gyXU4oW0NIMl1bQ0gyXTQpW0NIMl1bQ0gyXVtPSF0pTihbQ0gyXTMpQyg9TyljKFtjSF01KVtuSF1jKGM1NilbY0hdW2NIXW5bY0hdNg==

> <s_epik_cmdline>
J2VwaWtfcHl0aG9uJywgJy1waHQnLCAnMC41JywgJy1waCcsICc3LjUnLCAnLXRuJywgJzgnLCAnLW1hJywgJzUwMCcsICctaW1hZScsICc8aW5maWxlLm1hZT4nLCAnLW9tYWUnLCAnPG91dGZpbGUubWFlPic=

> <r_lp_tautomer_probability>
1

> <r_epik_Ionization_Penalty>
0.286105

> <r_epik_Ionization_Penalty_Charging>
0.286075

> <r_epik_Ionization_Penalty_Neutral>
3.05807e-05

> <r_epik_State_Penalty>
0.268523

> <r_epik_Charging_Adjusted_Penalty>
0.554597

> <i_epik_Tot_Q>
2

> <i_epik_Tot_abs_Q>
2

> <s_lp_Force_Field>
S-OPLS

> <r_lp_Energy>
86.8044

> <b_lp_Chiralities_Consistent>
1

> <s_lp_Variant>
ligprep_h3d.sdf:5363-1

> <ROCS_ShapeQuery>
_7L13

> <ROCS_TanimotoCombo>
0.669 

> <ROCS_ShapeTanimoto>
0.592 

> <ROCS_ColorTanimoto>
0.077 

> <ROCS_RefTversky>
0.773 

> <ROCS_RefColorTversky>
0.193 

> <ROCS_RefTverskyCombo>
0.966 

> <ROCS_FitTversky>
0.716 

> <ROCS_FitColorTversky>
0.115 

> <ROCS_FitTverskyCombo>
0.831 

> <ROCS_ColorScore>
-1.801

> <ROCS_Overlap>
1289.528

> <ROCS_Rank>
463                 

$$$$
ligprep_h3d.sdf:444_71
  -OEChem-08212117123D

 58 63  0     1  0  0  0  0  0999 V2000
  -20.9214   -5.0976  -29.5210 C   0  0  0  0  0  0  0  0  0  0  0  0
  -21.7243   -4.3515  -30.3870 C   0  0  0  0  0  0  0  0  0  0  0  0
  -21.0529   -4.8947  -28.1264 C   0  0  0  0  0  0  0  0  0  0  0  0
  -21.9934   -3.9926  -27.5773 C   0  0  0  0  0  0  0  0  0  0  0  0
  -22.6165   -3.4521  -29.8452 C   0  0  0  0  0  0  0  0  0  0  0  0
  -22.7829   -3.2387  -28.4772 C   0  0  0  0  0  0  0  0  0  0  0  0
  -21.9173   -4.2199  -31.7749 C   0  0  0  0  0  0  0  0  0  0  0  0
  -18.9268   -3.7915  -26.2102 C   0  0  0  0  0  0  0  0  0  0  0  0
  -19.1964   -6.0710  -25.0354 C   0  0  0  0  0  0  0  0  0  0  0  0
  -16.9623   -5.2365  -25.7345 C   0  0  0  0  0  0  0  0  0  0  0  0
  -20.7260   -6.2190  -32.5765 C   0  0  0  0  0  0  0  0  0  0  0  0
  -20.1686   -5.7053  -27.2157 C   0  0  0  0  0  0  0  0  0  0  0  0
  -23.1913   -3.0236  -25.6286 C   0  0  0  0  0  0  0  0  0  0  0  0
  -20.6714   -5.7543  -34.8060 C   0  0  0  0  0  0  0  0  0  0  0  0
  -21.1991   -4.5159  -25.2352 C   0  0  2  0  0  0  0  0  0  0  0  0
  -20.9310   -4.4563  -34.0667 C   0  0  2  0  0  0  0  0  0  0  0  0
  -21.0549   -3.5546  -24.0178 C   0  0  2  0  0  0  0  0  0  0  0  0
  -23.4662   -3.3968  -24.1737 C   0  0  2  0  0  0  0  0  0  0  0  0
  -19.8565   -4.9733  -25.8860 C   0  0  0  0  0  0  0  0  0  0  0  0
  -19.7070   -3.5431  -34.0768 C   0  0  0  0  0  0  0  0  0  0  0  0
  -20.0878   -4.0017  -22.9279 C   0  0  0  0  0  0  0  0  0  0  0  0
  -25.4745   -4.5945  -24.4222 C   0  0  0  0  0  0  0  0  0  0  0  0
  -22.8510   -3.3114  -32.0731 N   0  0  0  0  0  0  0  0  0  0  0  0
  -17.5739   -4.0922  -26.2259 N   0  0  0  0  0  0  0  0  0  0  0  0
  -17.8167   -6.1531  -25.1388 N   0  0  0  0  0  0  0  0  0  0  0  0
  -22.1156   -3.8498  -26.1949 N   0  0  3  0  0  0  0  0  0  0  0  0
  -21.2317   -4.9325  -32.7390 N   0  0  0  0  0  0  0  0  0  0  0  0
  -19.3388   -2.6693  -26.5043 O   0  0  0  0  0  0  0  0  0  0  0  0
  -19.8435   -6.8827  -24.3723 O   0  0  0  0  0  0  0  0  0  0  0  0
  -15.7433   -5.4079  -25.7872 O   0  0  0  0  0  0  0  0  0  0  0  0
  -20.6806   -6.8856  -31.5507 O   0  0  0  0  0  0  0  0  0  0  0  0
  -23.2912   -2.8252  -30.8475 O   0  0  0  0  0  0  0  0  0  0  0  0
  -20.2494   -6.6683  -33.7874 O   0  0  0  0  0  0  0  0  0  0  0  0
  -22.3089   -3.3525  -23.3502 O   0  0  0  0  0  0  0  0  0  0  0  0
  -24.0875   -4.6808  -24.1319 O   0  0  0  0  0  0  0  0  0  0  0  0
  -23.6095   -2.2601  -28.0933 F   0  0  0  0  0  0  0  0  0  0  0  0
  -20.2034   -5.8128  -29.9118 H   0  0  0  0  0  0  0  0  0  0  0  0
  -20.6792   -6.6583  -27.0256 H   0  0  0  0  0  0  0  0  0  0  0  0
  -19.2319   -5.9456  -27.7346 H   0  0  0  0  0  0  0  0  0  0  0  0
  -24.1026   -3.1957  -26.2287 H   0  0  0  0  0  0  0  0  0  0  0  0
  -23.0457   -1.9391  -25.6690 H   0  0  0  0  0  0  0  0  0  0  0  0
  -21.5802   -6.1554  -35.2676 H   0  0  0  0  0  0  0  0  0  0  0  0
  -19.8897   -5.6732  -35.5671 H   0  0  0  0  0  0  0  0  0  0  0  0
  -21.7405   -5.4064  -24.8887 H   0  0  0  0  0  0  0  0  0  0  0  0
  -21.7932   -3.9269  -34.4870 H   0  0  0  0  0  0  0  0  0  0  0  0
  -20.7013   -2.5525  -24.3560 H   0  0  0  0  0  0  0  0  0  0  0  0
  -24.2302   -2.6762  -23.7496 H   0  0  0  0  0  0  0  0  0  0  0  0
  -18.8502   -4.0694  -33.6590 H   0  0  0  0  0  0  0  0  0  0  0  0
  -19.9048   -2.6540  -33.4803 H   0  0  0  0  0  0  0  0  0  0  0  0
  -19.4782   -3.2437  -35.0984 H   0  0  0  0  0  0  0  0  0  0  0  0
  -20.3785   -4.9822  -22.5508 H   0  0  0  0  0  0  0  0  0  0  0  0
  -20.0992   -3.2882  -22.1039 H   0  0  0  0  0  0  0  0  0  0  0  0
  -19.0762   -4.0627  -23.3293 H   0  0  0  0  0  0  0  0  0  0  0  0
  -25.9188   -5.5920  -24.3820 H   0  0  0  0  0  0  0  0  0  0  0  0
  -25.6133   -4.1619  -25.4163 H   0  0  0  0  0  0  0  0  0  0  0  0
  -25.9543   -3.9542  -23.6782 H   0  0  0  0  0  0  0  0  0  0  0  0
  -16.9621   -3.3974  -26.6437 H   0  0  0  0  0  0  0  0  0  0  0  0
  -17.3766   -6.9474  -24.6835 H   0  0  0  0  0  0  0  0  0  0  0  0
  1  2  2  0  0  0  0
  1  3  1  0  0  0  0
  2  5  1  0  0  0  0
  2  7  1  0  0  0  0
  3  4  2  0  0  0  0
  3 12  1  0  0  0  0
  4  6  1  0  0  0  0
  4 26  1  0  0  0  0
  5  6  2  0  0  0  0
  5 32  1  0  0  0  0
  6 36  1  0  0  0  0
  7 23  2  0  0  0  0
  7 27  1  0  0  0  0
  8 19  1  0  0  0  0
  8 24  1  0  0  0  0
  8 28  2  0  0  0  0
  9 19  1  0  0  0  0
  9 25  1  0  0  0  0
  9 29  2  0  0  0  0
 10 24  1  0  0  0  0
 10 25  1  0  0  0  0
 10 30  2  0  0  0  0
 11 27  1  0  0  0  0
 11 31  2  0  0  0  0
 11 33  1  0  0  0  0
 12 19  1  0  0  0  0
 13 18  1  0  0  0  0
 13 26  1  0  0  0  0
 14 16  1  0  0  0  0
 14 33  1  0  0  0  0
 15 17  1  0  0  0  0
 15 19  1  0  0  0  0
 15 26  1  0  0  0  0
 16 20  1  0  0  0  0
 16 27  1  0  0  0  0
 17 21  1  0  0  0  0
 17 34  1  0  0  0  0
 18 34  1  0  0  0  0
 18 35  1  0  0  0  0
 22 35  1  0  0  0  0
 23 32  1  0  0  0  0
  1 37  1  0  0  0  0
 12 38  1  0  0  0  0
 12 39  1  0  0  0  0
 13 40  1  0  0  0  0
 13 41  1  0  0  0  0
 14 42  1  0  0  0  0
 14 43  1  0  0  0  0
 15 44  1  0  0  0  0
 16 45  1  0  0  0  0
 17 46  1  0  0  0  0
 18 47  1  0  0  0  0
 20 48  1  0  0  0  0
 20 49  1  0  0  0  0
 20 50  1  0  0  0  0
 21 51  1  0  0  0  0
 21 52  1  0  0  0  0
 21 53  1  0  0  0  0
 22 54  1  0  0  0  0
 22 55  1  0  0  0  0
 22 56  1  0  0  0  0
 24 57  1  0  0  0  0
 25 58  1  0  0  0  0
M  END
> <SMILES>
CO[C@@H]1CN2[C@H]([C@H](C)O1)C1(Cc3cc4c(noc4c(c32)F)N2[C@@H](C)COC2=O)C(=O)NC(=O)NC1=O

> <FORMATTED_ID>
H3D-003950

> <MOLFORMULA>
C22H22FN5O8

> <Exact Mass>
503.15

> <XLogP>
0.43

> <TPSA_NOPS>
152.8

> <s_m_source_file>
ligprep_h3d.sdf

> <i_m_source_file_index>
444

> <i_lp_mmshare_version>
55123

> <i_f3d_flags>
0

> <s_epik_input>
Tz1DMVtOSF1DKD1PKVtOSF1DKD1PKUMxMltDQEBIXTNOKFtDSDJdW0NAQEhdKE9bQ0gzXSlPW0NASF0zW0NIM10pYzRjKFtDSDJdMilbY0hdYzVjKGM0RilvbmM1TjZbQ0BASF0oW0NIM10pW0NIMl1PQzY9Tw==

> <s_epik_cmdline>
J2VwaWtfcHl0aG9uJywgJy1waHQnLCAnMC41JywgJy1waCcsICc3LjUnLCAnLXRuJywgJzgnLCAnLW1hJywgJzUwMCcsICctaW1hZScsICc8aW5maWxlLm1hZT4nLCAnLW9tYWUnLCAnPG91dGZpbGUubWFlPic=

> <r_lp_tautomer_probability>
1

> <r_epik_Ionization_Penalty>
0.39825

> <r_epik_Ionization_Penalty_Charging>
0

> <r_epik_Ionization_Penalty_Neutral>
0.39825

> <r_epik_State_Penalty>
0.397423

> <r_epik_Charging_Adjusted_Penalty>
0.397423

> <i_epik_Tot_Q>
0

> <i_epik_Tot_abs_Q>
0

> <s_epik_Chemistry_Notes>
This compound has an ester and may undergo hydrolysis at high or low pH. This compound contains an acetal/aminal-like group ( X-CH(R)-Y where X, Y are N, S, or O) that may be acid/base labile, releasing an aldehyde.

> <s_lp_Force_Field>
S-OPLS

> <r_lp_Energy>
30.1951

> <b_lp_Chiralities_Consistent>
1

> <s_lp_Variant>
ligprep_h3d.sdf:444-1

> <ROCS_ShapeQuery>
_7L13

> <ROCS_TanimotoCombo>
0.743 

> <ROCS_ShapeTanimoto>
0.614 

> <ROCS_ColorTanimoto>
0.129 

> <ROCS_RefTversky>
0.773 

> <ROCS_RefColorTversky>
0.296 

> <ROCS_RefTverskyCombo>
1.069 

> <ROCS_FitTversky>
0.749 

> <ROCS_FitColorTversky>
0.186 

> <ROCS_FitTverskyCombo>
0.936 

> <ROCS_ColorScore>
-2.749

> <ROCS_Overlap>
1286.112

> <ROCS_Rank>
464                 

$$$$
ligprep_h3d.sdf:5331_980
  -OEChem-08212117123D

 66 71  0     0  0  0  0  0  0999 V2000
  -19.2971   -6.0661  -36.1857 C   0  0  0  0  0  0  0  0  0  0  0  0
  -19.8118   -7.2342  -35.6234 C   0  0  0  0  0  0  0  0  0  0  0  0
  -19.4096   -4.8549  -35.5030 C   0  0  0  0  0  0  0  0  0  0  0  0
  -20.4391   -7.1911  -34.3783 C   0  0  0  0  0  0  0  0  0  0  0  0
  -20.0369   -4.8119  -34.2579 C   0  0  0  0  0  0  0  0  0  0  0  0
  -22.9768   -4.2550  -28.8152 C   0  0  0  0  0  0  0  0  0  0  0  0
  -20.2531   -4.8369  -29.2336 C   0  0  0  0  0  0  0  0  0  0  0  0
  -14.7371   -6.0959  -26.0624 C   0  0  0  0  0  0  0  0  0  0  0  0
  -14.2780   -4.9579  -25.4525 C   0  0  0  0  0  0  0  0  0  0  0  0
  -22.0980   -4.3719  -27.7450 C   0  0  0  0  0  0  0  0  0  0  0  0
  -20.5517   -5.9800  -33.6955 C   0  0  0  0  0  0  0  0  0  0  0  0
  -20.7420   -4.6592  -27.9444 C   0  0  0  0  0  0  0  0  0  0  0  0
  -22.4829   -4.4247  -30.1079 C   0  0  0  0  0  0  0  0  0  0  0  0
  -21.1294   -4.7151  -30.3157 C   0  0  0  0  0  0  0  0  0  0  0  0
  -16.4354   -4.6859  -25.8473 C   0  0  0  0  0  0  0  0  0  0  0  0
  -17.8368   -4.2016  -25.9691 C   0  0  0  0  0  0  0  0  0  0  0  0
  -18.2500   -6.3539  -27.0151 C   0  0  0  0  0  0  0  0  0  0  0  0
  -16.9745   -6.7678  -26.8920 C   0  0  0  0  0  0  0  0  0  0  0  0
  -18.7240   -5.0385  -26.5499 C   0  0  0  0  0  0  0  0  0  0  0  0
  -23.5300   -2.9236  -24.4248 C   0  0  0  0  0  0  0  0  0  0  0  0
  -23.6290   -5.4526  -24.3422 C   0  0  0  0  0  0  0  0  0  0  0  0
  -23.1496   -2.9817  -25.9052 C   0  0  0  0  0  0  0  0  0  0  0  0
  -23.2066   -5.5184  -25.8128 C   0  0  0  0  0  0  0  0  0  0  0  0
  -20.9525   -4.2875  -25.6769 C   0  0  0  0  0  0  0  0  0  0  0  0
  -24.3548   -4.1463  -24.0347 C   0  0  0  0  0  0  0  0  0  0  0  0
  -22.4005   -4.2801  -26.2675 C   0  0  0  0  0  0  0  0  0  0  0  0
  -23.4823   -3.0161  -31.7428 C   0  0  0  0  0  0  0  0  0  0  0  0
  -21.2265   -5.9329  -32.3561 C   0  0  0  0  0  0  0  0  0  0  0  0
  -16.0821   -5.9039  -26.2986 N   0  0  0  0  0  0  0  0  0  0  0  0
  -15.3494   -4.1039  -25.3320 N   0  3  0  0  0  0  0  0  0  0  0  0
  -20.0329   -4.7352  -26.7300 N   0  0  0  0  0  0  0  0  0  0  0  0
  -24.6418   -4.0877  -22.5766 N   0  3  0  0  0  0  0  0  0  0  0  0
  -23.3337   -4.3120  -31.1669 O   0  0  0  0  0  0  0  0  0  0  0  0
  -20.6502   -4.8842  -31.5813 O   0  0  0  0  0  0  0  0  0  0  0  0
  -18.8075   -6.1000  -37.1546 H   0  0  0  0  0  0  0  0  0  0  0  0
  -19.7234   -8.1775  -36.1543 H   0  0  0  0  0  0  0  0  0  0  0  0
  -19.0080   -3.9455  -35.9400 H   0  0  0  0  0  0  0  0  0  0  0  0
  -20.8374   -8.1062  -33.9479 H   0  0  0  0  0  0  0  0  0  0  0  0
  -20.1201   -3.8637  -33.7332 H   0  0  0  0  0  0  0  0  0  0  0  0
  -24.0293   -4.0464  -28.6514 H   0  0  0  0  0  0  0  0  0  0  0  0
  -19.2067   -5.0616  -29.4150 H   0  0  0  0  0  0  0  0  0  0  0  0
  -14.2879   -7.0234  -26.3633 H   0  0  0  0  0  0  0  0  0  0  0  0
  -13.3318   -4.6202  -25.0785 H   0  0  0  0  0  0  0  0  0  0  0  0
  -18.0986   -3.2181  -25.5991 H   0  0  0  0  0  0  0  0  0  0  0  0
  -18.9771   -7.0141  -27.4796 H   0  0  0  0  0  0  0  0  0  0  0  0
  -16.6164   -7.7313  -27.2304 H   0  0  0  0  0  0  0  0  0  0  0  0
  -22.6205   -2.8629  -23.8143 H   0  0  0  0  0  0  0  0  0  0  0  0
  -24.1026   -2.0071  -24.2376 H   0  0  0  0  0  0  0  0  0  0  0  0
  -24.2809   -6.3062  -24.1194 H   0  0  0  0  0  0  0  0  0  0  0  0
  -22.7455   -5.5572  -23.7012 H   0  0  0  0  0  0  0  0  0  0  0  0
  -24.0695   -2.8996  -26.4990 H   0  0  0  0  0  0  0  0  0  0  0  0
  -22.5461   -2.1015  -26.1619 H   0  0  0  0  0  0  0  0  0  0  0  0
  -22.6318   -6.4386  -25.9812 H   0  0  0  0  0  0  0  0  0  0  0  0
  -24.1142   -5.6126  -26.4247 H   0  0  0  0  0  0  0  0  0  0  0  0
  -20.6522   -3.2775  -25.3673 H   0  0  0  0  0  0  0  0  0  0  0  0
  -20.8674   -4.9318  -24.7949 H   0  0  0  0  0  0  0  0  0  0  0  0
  -25.3289   -4.1249  -24.5366 H   0  0  0  0  0  0  0  0  0  0  0  0
  -24.1871   -3.0656  -32.5764 H   0  0  0  0  0  0  0  0  0  0  0  0
  -22.5109   -2.6587  -32.0937 H   0  0  0  0  0  0  0  0  0  0  0  0
  -23.8674   -2.3316  -30.9832 H   0  0  0  0  0  0  0  0  0  0  0  0
  -22.3006   -5.7477  -32.4650 H   0  0  0  0  0  0  0  0  0  0  0  0
  -21.1010   -6.8826  -31.8251 H   0  0  0  0  0  0  0  0  0  0  0  0
  -15.3193   -3.1766  -24.9171 H   0  0  0  0  0  0  0  0  0  0  0  0
  -25.6236   -3.8487  -22.4090 H   0  0  0  0  0  0  0  0  0  0  0  0
  -24.0588   -3.3797  -22.1204 H   0  0  0  0  0  0  0  0  0  0  0  0
  -24.4529   -4.9913  -22.1326 H   0  0  0  0  0  0  0  0  0  0  0  0
  1  2  2  0  0  0  0
  1  3  1  0  0  0  0
  2  4  1  0  0  0  0
  3  5  2  0  0  0  0
  4 11  2  0  0  0  0
  5 11  1  0  0  0  0
  6 10  1  0  0  0  0
  6 13  2  0  0  0  0
  7 12  1  0  0  0  0
  7 14  2  0  0  0  0
  8  9  2  0  0  0  0
  8 29  1  0  0  0  0
  9 30  1  0  0  0  0
 10 12  2  0  0  0  0
 10 26  1  0  0  0  0
 11 28  1  0  0  0  0
 12 31  1  0  0  0  0
 13 14  1  0  0  0  0
 13 33  1  0  0  0  0
 14 34  1  0  0  0  0
 15 16  1  0  0  0  0
 15 29  1  0  0  0  0
 15 30  2  0  0  0  0
 16 19  2  0  0  0  0
 17 18  2  0  0  0  0
 17 19  1  0  0  0  0
 18 29  1  0  0  0  0
 19 31  1  0  0  0  0
 20 22  1  0  0  0  0
 20 25  1  0  0  0  0
 21 23  1  0  0  0  0
 21 25  1  0  0  0  0
 22 26  1  0  0  0  0
 23 26  1  0  0  0  0
 24 26  1  0  0  0  0
 24 31  1  0  0  0  0
 25 32  1  0  0  0  0
 27 33  1  0  0  0  0
 28 34  1  0  0  0  0
  1 35  1  0  0  0  0
  2 36  1  0  0  0  0
  3 37  1  0  0  0  0
  4 38  1  0  0  0  0
  5 39  1  0  0  0  0
  6 40  1  0  0  0  0
  7 41  1  0  0  0  0
  8 42  1  0  0  0  0
  9 43  1  0  0  0  0
 16 44  1  0  0  0  0
 17 45  1  0  0  0  0
 18 46  1  0  0  0  0
 20 47  1  0  0  0  0
 20 48  1  0  0  0  0
 21 49  1  0  0  0  0
 21 50  1  0  0  0  0
 22 51  1  0  0  0  0
 22 52  1  0  0  0  0
 23 53  1  0  0  0  0
 23 54  1  0  0  0  0
 24 55  1  0  0  0  0
 24 56  1  0  0  0  0
 25 57  1  0  0  0  0
 27 58  1  0  0  0  0
 27 59  1  0  0  0  0
 27 60  1  0  0  0  0
 28 61  1  0  0  0  0
 28 62  1  0  0  0  0
 30 63  1  0  0  0  0
 32 64  1  0  0  0  0
 32 65  1  0  0  0  0
 32 66  1  0  0  0  0
M  CHG  2  30   1  32   1
M  END
> <SMILES>
COc1cc2c(cc1OCc1ccccc1)N(CC12CCC(N)CC1)c1ccn2ccnc2c1

> <FORMATTED_ID>
H3D-014935

> <MOLFORMULA>
C28H30N4O2

> <Exact Mass>
454.24

> <XLogP>
6.21

> <TPSA_NOPS>
65

> <s_m_source_file>
ligprep_h3d.sdf

> <i_m_source_file_index>
5331

> <i_lp_mmshare_version>
55123

> <i_f3d_flags>
0

> <s_epik_input>
W2NIXTFbY0hdW2NIXVtjSF1bY0hdYzFbQ0gyXU9jKGMoW2NIXTIpT1tDSDNdKVtjSF1jKGMyW0NAXTM0W0NIMl1bQ0gyXVtDQEhdKFtOSDJdKVtDSDJdW0NIMl00KU4oW0NIMl0zKWMoW2NIXVtjSF01KVtjSF1jKG41NiluW2NIXVtjSF02

> <s_epik_cmdline>
J2VwaWtfcHl0aG9uJywgJy1waHQnLCAnMC41JywgJy1waCcsICc3LjUnLCAnLXRuJywgJzgnLCAnLW1hJywgJzUwMCcsICctaW1hZScsICc8aW5maWxlLm1hZT4nLCAnLW9tYWUnLCAnPG91dGZpbGUubWFlPic=

> <r_lp_tautomer_probability>
1

> <r_epik_Ionization_Penalty>
0.336889

> <r_epik_Ionization_Penalty_Charging>
0.00107337

> <r_epik_Ionization_Penalty_Neutral>
0.335815

> <r_epik_State_Penalty>
0.331179

> <r_epik_Charging_Adjusted_Penalty>
0.332252

> <i_epik_Tot_Q>
2

> <i_epik_Tot_abs_Q>
2

> <s_lp_Force_Field>
S-OPLS

> <r_lp_Energy>
77.4875

> <b_lp_Chiralities_Consistent>
1

> <s_lp_Variant>
ligprep_h3d.sdf:5331-1

> <ROCS_ShapeQuery>
_7L13

> <ROCS_TanimotoCombo>
0.758 

> <ROCS_ShapeTanimoto>
0.652 

> <ROCS_ColorTanimoto>
0.106 

> <ROCS_RefTversky>
0.773 

> <ROCS_RefColorTversky>
0.220 

> <ROCS_RefTverskyCombo>
0.993 

> <ROCS_FitTversky>
0.806 

> <ROCS_FitColorTversky>
0.170 

> <ROCS_FitTverskyCombo>
0.976 

> <ROCS_ColorScore>
-2.016

> <ROCS_Overlap>
1280.770

> <ROCS_Rank>
465                 

$$$$
ligprep_h3d.sdf:4372_1840
  -OEChem-08212117123D

 62 67  0     0  0  0  0  0  0999 V2000
  -20.2929   -6.0871  -36.2734 C   0  0  0  0  0  0  0  0  0  0  0  0
  -19.7113   -6.8879  -37.2563 C   0  0  0  0  0  0  0  0  0  0  0  0
  -20.4739   -4.4231  -25.5079 C   0  0  0  0  0  0  0  0  0  0  0  0
  -19.9263   -7.8276  -34.6383 C   0  0  0  0  0  0  0  0  0  0  0  0
  -22.4375   -3.5365  -26.5768 C   0  0  0  0  0  0  0  0  0  0  0  0
  -21.4219   -4.5608  -30.5867 C   0  0  0  0  0  0  0  0  0  0  0  0
  -19.8749   -4.4564  -26.7569 C   0  0  0  0  0  0  0  0  0  0  0  0
  -23.0845   -3.3114  -32.4908 C   0  0  0  0  0  0  0  0  0  0  0  0
  -20.4003   -6.5569  -34.9644 C   0  0  0  0  0  0  0  0  0  0  0  0
  -21.7798   -3.9530  -25.4247 C   0  0  0  0  0  0  0  0  0  0  0  0
  -19.3447   -8.6285  -35.6212 C   0  0  0  0  0  0  0  0  0  0  0  0
  -22.1879   -4.3019  -32.8928 C   0  0  0  0  0  0  0  0  0  0  0  0
  -21.3800   -4.9011  -31.9318 C   0  0  0  0  0  0  0  0  0  0  0  0
  -19.2373   -8.1586  -36.9302 C   0  0  0  0  0  0  0  0  0  0  0  0
  -21.7506   -3.6093  -27.7779 C   0  0  0  0  0  0  0  0  0  0  0  0
  -22.3443   -3.5677  -30.2897 C   0  0  0  0  0  0  0  0  0  0  0  0
  -21.0017   -5.7281  -33.9478 C   0  0  0  0  0  0  0  0  0  0  0  0
  -22.4561   -3.8981  -24.1341 C   0  0  0  0  0  0  0  0  0  0  0  0
  -28.0506   -5.4716  -21.4649 C   0  0  0  0  0  0  0  0  0  0  0  0
  -28.8418   -5.5662  -22.7387 C   0  0  0  0  0  0  0  0  0  0  0  0
  -24.6300   -4.8371  -25.1010 C   0  0  0  0  0  0  0  0  0  0  0  0
  -24.6624   -3.3320  -23.1544 C   0  0  0  0  0  0  0  0  0  0  0  0
  -25.5380   -5.8252  -24.3836 C   0  0  0  0  0  0  0  0  0  0  0  0
  -25.5791   -4.2885  -22.4040 C   0  0  0  0  0  0  0  0  0  0  0  0
  -27.3959   -5.9727  -22.7205 C   0  0  0  0  0  0  0  0  0  0  0  0
  -18.8379   -9.9865  -35.2695 C   0  0  0  0  0  0  0  0  0  0  0  0
  -20.4818   -4.0602  -27.8981 N   0  0  0  0  0  0  0  0  0  0  0  0
  -23.1548   -2.9512  -31.1852 N   0  0  0  0  0  0  0  0  0  0  0  0
  -21.9398   -4.8275  -34.1390 N   0  0  0  0  0  0  0  0  0  0  0  0
  -20.6310   -5.8096  -32.6341 N   0  0  0  0  0  0  0  0  0  0  0  0
  -23.8504   -4.0547  -24.1332 N   0  0  0  0  0  0  0  0  0  0  0  0
  -22.4337   -3.1807  -28.9431 N   0  0  0  0  0  0  0  0  0  0  0  0
  -26.4074   -5.0686  -23.4017 N   0  3  0  0  0  0  0  0  0  0  0  0
  -21.7899   -3.7246  -23.1141 O   0  0  0  0  0  0  0  0  0  0  0  0
  -18.6820   -8.9218  -37.8819 F   0  0  0  0  0  0  0  0  0  0  0  0
  -19.0093  -10.3109  -33.9538 F   0  0  0  0  0  0  0  0  0  0  0  0
  -19.4434  -10.9932  -35.9663 F   0  0  0  0  0  0  0  0  0  0  0  0
  -17.5018  -10.1267  -35.5101 F   0  0  0  0  0  0  0  0  0  0  0  0
  -20.6577   -5.0988  -36.5432 H   0  0  0  0  0  0  0  0  0  0  0  0
  -19.6265   -6.5229  -38.2757 H   0  0  0  0  0  0  0  0  0  0  0  0
  -19.9324   -4.7560  -24.6289 H   0  0  0  0  0  0  0  0  0  0  0  0
  -20.0070   -8.2003  -33.6190 H   0  0  0  0  0  0  0  0  0  0  0  0
  -23.4575   -3.1657  -26.5321 H   0  0  0  0  0  0  0  0  0  0  0  0
  -20.7879   -5.0325  -29.8467 H   0  0  0  0  0  0  0  0  0  0  0  0
  -18.8577   -4.8147  -26.8756 H   0  0  0  0  0  0  0  0  0  0  0  0
  -23.7472   -2.7941  -33.1732 H   0  0  0  0  0  0  0  0  0  0  0  0
  -27.7960   -4.4833  -21.1023 H   0  0  0  0  0  0  0  0  0  0  0  0
  -28.2635   -6.1928  -20.6852 H   0  0  0  0  0  0  0  0  0  0  0  0
  -29.5851   -6.3506  -22.8127 H   0  0  0  0  0  0  0  0  0  0  0  0
  -29.1178   -4.6411  -23.2299 H   0  0  0  0  0  0  0  0  0  0  0  0
  -23.9803   -5.3788  -25.7929 H   0  0  0  0  0  0  0  0  0  0  0  0
  -25.2189   -4.1299  -25.6974 H   0  0  0  0  0  0  0  0  0  0  0  0
  -25.2451   -2.5784  -23.6975 H   0  0  0  0  0  0  0  0  0  0  0  0
  -24.0226   -2.8002  -22.4430 H   0  0  0  0  0  0  0  0  0  0  0  0
  -26.2071   -6.3235  -25.0926 H   0  0  0  0  0  0  0  0  0  0  0  0
  -24.9689   -6.5746  -23.8221 H   0  0  0  0  0  0  0  0  0  0  0  0
  -25.0139   -5.0077  -21.8005 H   0  0  0  0  0  0  0  0  0  0  0  0
  -26.2754   -3.7367  -21.7642 H   0  0  0  0  0  0  0  0  0  0  0  0
  -27.1735   -7.0314  -22.7800 H   0  0  0  0  0  0  0  0  0  0  0  0
  -19.9301   -6.4271  -32.2457 H   0  0  0  0  0  0  0  0  0  0  0  0
  -23.1163   -2.4544  -28.7622 H   0  0  0  0  0  0  0  0  0  0  0  0
  -26.9709   -4.3875  -23.9421 H   0  0  0  0  0  0  0  0  0  0  0  0
  1  2  1  0  0  0  0
  1  9  2  0  0  0  0
  2 14  2  0  0  0  0
  3  7  1  0  0  0  0
  3 10  2  0  0  0  0
  4  9  1  0  0  0  0
  4 11  2  0  0  0  0
  5 10  1  0  0  0  0
  5 15  2  0  0  0  0
  6 13  2  0  0  0  0
  6 16  1  0  0  0  0
  7 27  2  0  0  0  0
  8 12  2  0  0  0  0
  8 28  1  0  0  0  0
  9 17  1  0  0  0  0
 10 18  1  0  0  0  0
 11 14  1  0  0  0  0
 11 26  1  0  0  0  0
 12 13  1  0  0  0  0
 12 29  1  0  0  0  0
 13 30  1  0  0  0  0
 14 35  1  0  0  0  0
 15 27  1  0  0  0  0
 15 32  1  0  0  0  0
 16 28  2  0  0  0  0
 16 32  1  0  0  0  0
 17 29  2  0  0  0  0
 17 30  1  0  0  0  0
 18 31  1  0  0  0  0
 18 34  2  0  0  0  0
 19 20  1  0  0  0  0
 19 25  1  0  0  0  0
 20 25  1  0  0  0  0
 21 23  1  0  0  0  0
 21 31  1  0  0  0  0
 22 24  1  0  0  0  0
 22 31  1  0  0  0  0
 23 33  1  0  0  0  0
 24 33  1  0  0  0  0
 25 33  1  0  0  0  0
 26 36  1  0  0  0  0
 26 37  1  0  0  0  0
 26 38  1  0  0  0  0
  1 39  1  0  0  0  0
  2 40  1  0  0  0  0
  3 41  1  0  0  0  0
  4 42  1  0  0  0  0
  5 43  1  0  0  0  0
  6 44  1  0  0  0  0
  7 45  1  0  0  0  0
  8 46  1  0  0  0  0
 19 47  1  0  0  0  0
 19 48  1  0  0  0  0
 20 49  1  0  0  0  0
 20 50  1  0  0  0  0
 21 51  1  0  0  0  0
 21 52  1  0  0  0  0
 22 53  1  0  0  0  0
 22 54  1  0  0  0  0
 23 55  1  0  0  0  0
 23 56  1  0  0  0  0
 24 57  1  0  0  0  0
 24 58  1  0  0  0  0
 25 59  1  0  0  0  0
 30 60  1  0  0  0  0
 32 61  1  0  0  0  0
 33 62  1  0  0  0  0
M  CHG  1  33   1
M  END
> <SMILES>
Fc1ccc(cc1C(F)(F)F)-c1nc2cnc(cc2[nH]1)Nc1cc(ccn1)C(=O)N1CCN(CC1)C1CC1

> <FORMATTED_ID>
H3D-003919

> <MOLFORMULA>
C26H23F4N7O

> <Exact Mass>
525.19

> <XLogP>
4.8

> <TPSA_NOPS>
90

> <s_m_source_file>
ligprep_h3d.sdf

> <i_m_source_file_index>
4372

> <i_lp_mmshare_version>
55123

> <i_f3d_flags>
0

> <s_epik_input>
RmMxW2NIXVtjSF1jKFtjSF1jMUMoRikoRilGKS1jKG4yKVtuSF1jKGMyMylbY0hdYyhuW2NIXTMpW05IXWM0W2NIXWMoW2NIXVtjSF1uNClDKD1PKU41W0NIMl1bQ0gyXU4oW0NIMl1bQ0gyXTUpW0NIXTZbQ0gyXVtDSDJdNg==

> <s_epik_cmdline>
J2VwaWtfcHl0aG9uJywgJy1waHQnLCAnMC41JywgJy1waCcsICc3LjUnLCAnLXRuJywgJzgnLCAnLW1hJywgJzUwMCcsICctaW1hZScsICc8aW5maWxlLm1hZT4nLCAnLW9tYWUnLCAnPG91dGZpbGUubWFlPic=

> <r_lp_tautomer_probability>
1

> <r_epik_Ionization_Penalty>
0.120337

> <r_epik_Ionization_Penalty_Charging>
0.119968

> <r_epik_Ionization_Penalty_Neutral>
0.000368617

> <r_epik_State_Penalty>
-0

> <r_epik_Charging_Adjusted_Penalty>
0.119968

> <i_epik_Tot_Q>
1

> <i_epik_Tot_abs_Q>
1

> <s_lp_Force_Field>
S-OPLS

> <r_lp_Energy>
53.4049

> <b_lp_Chiralities_Consistent>
1

> <s_lp_Variant>
ligprep_h3d.sdf:4372-1

> <ROCS_ShapeQuery>
_7L13

> <ROCS_TanimotoCombo>
0.759 

> <ROCS_ShapeTanimoto>
0.597 

> <ROCS_ColorTanimoto>
0.161 

> <ROCS_RefTversky>
0.773 

> <ROCS_RefColorTversky>
0.332 

> <ROCS_RefTverskyCombo>
1.105 

> <ROCS_FitTversky>
0.725 

> <ROCS_FitColorTversky>
0.238 

> <ROCS_FitTverskyCombo>
0.963 

> <ROCS_ColorScore>
-3.057

> <ROCS_Overlap>
1288.394

> <ROCS_Rank>
466                 

$$$$
ligprep_h3d.sdf:938_763
  -OEChem-08212117123D

 67 70  0     0  0  0  0  0  0999 V2000
  -16.6309   -5.3684  -26.2020 C   0  0  0  0  0  0  0  0  0  0  0  0
  -22.9925   -4.6977  -28.6220 C   0  0  0  0  0  0  0  0  0  0  0  0
  -20.6774   -4.2768  -25.1966 C   0  0  0  0  0  0  0  0  0  0  0  0
  -16.6794   -3.9821  -26.4420 C   0  0  0  0  0  0  0  0  0  0  0  0
  -20.8287   -4.6743  -27.5765 C   0  0  0  0  0  0  0  0  0  0  0  0
  -21.0212   -5.0701  -29.9635 C   0  0  0  0  0  0  0  0  0  0  0  0
  -22.4019   -4.9531  -29.8622 C   0  0  0  0  0  0  0  0  0  0  0  0
  -20.2344   -4.9312  -28.8238 C   0  0  0  0  0  0  0  0  0  0  0  0
  -22.2299   -4.5545  -27.4661 C   0  0  0  0  0  0  0  0  0  0  0  0
  -20.0605   -4.5300  -26.4133 C   0  0  0  0  0  0  0  0  0  0  0  0
  -22.0538   -4.1762  -25.1877 C   0  0  0  0  0  0  0  0  0  0  0  0
  -17.9480   -5.7560  -26.1606 C   0  0  0  0  0  0  0  0  0  0  0  0
  -20.0025   -4.2786  -32.1803 C   0  0  0  0  0  0  0  0  0  0  0  0
  -20.2194   -6.6203  -31.6468 C   0  0  0  0  0  0  0  0  0  0  0  0
  -19.4459   -4.5673  -33.3612 C   0  0  0  0  0  0  0  0  0  0  0  0
  -20.4107   -5.3400  -31.2806 C   0  0  0  0  0  0  0  0  0  0  0  0
  -19.5991   -6.9597  -32.9653 C   0  0  0  0  0  0  0  0  0  0  0  0
  -22.7615   -3.9122  -23.9467 C   0  0  0  0  0  0  0  0  0  0  0  0
  -19.6751   -6.5400  -36.0711 C   0  0  0  0  0  0  0  0  0  0  0  0
  -23.2938   -5.0934  -31.0547 C   0  0  0  0  0  0  0  0  0  0  0  0
  -18.7499   -5.0702  -29.0119 C   0  0  0  0  0  0  0  0  0  0  0  0
  -18.5508   -7.0857  -25.9431 C   0  0  0  0  0  0  0  0  0  0  0  0
  -20.1143   -7.9244  -38.1138 C   0  0  0  0  0  0  0  0  0  0  0  0
  -17.8380   -7.8356  -37.1729 C   0  0  0  0  0  0  0  0  0  0  0  0
  -18.6252   -6.0869  -35.0720 C   0  0  0  0  0  0  0  0  0  0  0  0
  -24.8946   -4.2370  -22.6679 C   0  0  0  0  0  0  0  0  0  0  0  0
  -25.8207   -5.4279  -22.5018 C   0  0  0  0  0  0  0  0  0  0  0  0
  -17.9283   -3.5202  -26.5461 N   0  0  0  0  0  0  0  0  0  0  0  0
  -22.8313   -4.3088  -26.2868 N   0  0  0  0  0  0  0  0  0  0  0  0
  -18.6768   -4.6225  -26.3707 N   0  0  0  0  0  0  0  0  0  0  0  0
  -19.2386   -5.8724  -33.7668 N   0  0  0  0  0  0  0  0  0  0  0  0
  -24.0561   -4.4330  -23.8286 N   0  0  0  0  0  0  0  0  0  0  0  0
  -19.2258   -7.3998  -37.0796 N   0  0  0  0  0  0  0  0  0  0  0  0
  -19.4454   -8.1444  -33.2589 O   0  0  0  0  0  0  0  0  0  0  0  0
  -22.2318   -3.2333  -23.0482 O   0  0  0  0  0  0  0  0  0  0  0  0
  -20.8448   -6.1593  -35.9743 O   0  0  0  0  0  0  0  0  0  0  0  0
  -26.6614   -5.5352  -23.6435 O   0  0  0  0  0  0  0  0  0  0  0  0
  -15.7613   -5.9970  -26.0771 H   0  0  0  0  0  0  0  0  0  0  0  0
  -24.0762   -4.6085  -28.5575 H   0  0  0  0  0  0  0  0  0  0  0  0
  -20.1052   -4.1608  -24.2805 H   0  0  0  0  0  0  0  0  0  0  0  0
  -15.8566   -3.2894  -26.5457 H   0  0  0  0  0  0  0  0  0  0  0  0
  -20.1562   -3.2472  -31.8789 H   0  0  0  0  0  0  0  0  0  0  0  0
  -20.5037   -7.4567  -31.0135 H   0  0  0  0  0  0  0  0  0  0  0  0
  -19.1351   -3.7855  -34.0454 H   0  0  0  0  0  0  0  0  0  0  0  0
  -23.4460   -4.1180  -31.5292 H   0  0  0  0  0  0  0  0  0  0  0  0
  -22.8609   -5.7793  -31.7921 H   0  0  0  0  0  0  0  0  0  0  0  0
  -24.2704   -5.5023  -30.7704 H   0  0  0  0  0  0  0  0  0  0  0  0
  -18.4566   -6.1153  -28.8847 H   0  0  0  0  0  0  0  0  0  0  0  0
  -18.4531   -4.7347  -30.0096 H   0  0  0  0  0  0  0  0  0  0  0  0
  -18.2088   -4.4563  -28.2862 H   0  0  0  0  0  0  0  0  0  0  0  0
  -18.7327   -7.2689  -24.8715 H   0  0  0  0  0  0  0  0  0  0  0  0
  -19.5142   -7.1944  -26.4699 H   0  0  0  0  0  0  0  0  0  0  0  0
  -17.9055   -7.8987  -26.3175 H   0  0  0  0  0  0  0  0  0  0  0  0
  -20.1213   -7.2390  -38.9741 H   0  0  0  0  0  0  0  0  0  0  0  0
  -19.7575   -8.9137  -38.4362 H   0  0  0  0  0  0  0  0  0  0  0  0
  -21.1333   -8.0159  -37.7097 H   0  0  0  0  0  0  0  0  0  0  0  0
  -17.7047   -8.7627  -36.5960 H   0  0  0  0  0  0  0  0  0  0  0  0
  -17.5816   -8.0196  -38.2267 H   0  0  0  0  0  0  0  0  0  0  0  0
  -17.1800   -7.0533  -36.7667 H   0  0  0  0  0  0  0  0  0  0  0  0
  -17.8568   -6.8552  -34.9538 H   0  0  0  0  0  0  0  0  0  0  0  0
  -18.1827   -5.1386  -35.3878 H   0  0  0  0  0  0  0  0  0  0  0  0
  -25.4607   -3.3104  -22.8063 H   0  0  0  0  0  0  0  0  0  0  0  0
  -24.2465   -4.1335  -21.7924 H   0  0  0  0  0  0  0  0  0  0  0  0
  -26.4592   -5.2866  -21.6242 H   0  0  0  0  0  0  0  0  0  0  0  0
  -25.2598   -6.3614  -22.3886 H   0  0  0  0  0  0  0  0  0  0  0  0
  -24.4653   -4.9260  -24.6156 H   0  0  0  0  0  0  0  0  0  0  0  0
  -27.2345   -6.3049  -23.4973 H   0  0  0  0  0  0  0  0  0  0  0  0
  1  4  1  0  0  0  0
  1 12  2  0  0  0  0
  2  7  1  0  0  0  0
  2  9  2  0  0  0  0
  3 10  2  0  0  0  0
  3 11  1  0  0  0  0
  4 28  2  0  0  0  0
  5  8  2  0  0  0  0
  5  9  1  0  0  0  0
  5 10  1  0  0  0  0
  6  7  2  0  0  0  0
  6  8  1  0  0  0  0
  6 16  1  0  0  0  0
  7 20  1  0  0  0  0
  8 21  1  0  0  0  0
  9 29  1  0  0  0  0
 10 30  1  0  0  0  0
 11 18  1  0  0  0  0
 11 29  2  0  0  0  0
 12 22  1  0  0  0  0
 12 30  1  0  0  0  0
 13 15  2  0  0  0  0
 13 16  1  0  0  0  0
 14 16  2  0  0  0  0
 14 17  1  0  0  0  0
 15 31  1  0  0  0  0
 17 31  1  0  0  0  0
 17 34  2  0  0  0  0
 18 32  1  0  0  0  0
 18 35  2  0  0  0  0
 19 25  1  0  0  0  0
 19 33  1  0  0  0  0
 19 36  2  0  0  0  0
 23 33  1  0  0  0  0
 24 33  1  0  0  0  0
 25 31  1  0  0  0  0
 26 27  1  0  0  0  0
 26 32  1  0  0  0  0
 27 37  1  0  0  0  0
 28 30  1  0  0  0  0
  1 38  1  0  0  0  0
  2 39  1  0  0  0  0
  3 40  1  0  0  0  0
  4 41  1  0  0  0  0
 13 42  1  0  0  0  0
 14 43  1  0  0  0  0
 15 44  1  0  0  0  0
 20 45  1  0  0  0  0
 20 46  1  0  0  0  0
 20 47  1  0  0  0  0
 21 48  1  0  0  0  0
 21 49  1  0  0  0  0
 21 50  1  0  0  0  0
 22 51  1  0  0  0  0
 22 52  1  0  0  0  0
 22 53  1  0  0  0  0
 23 54  1  0  0  0  0
 23 55  1  0  0  0  0
 23 56  1  0  0  0  0
 24 57  1  0  0  0  0
 24 58  1  0  0  0  0
 24 59  1  0  0  0  0
 25 60  1  0  0  0  0
 25 61  1  0  0  0  0
 26 62  1  0  0  0  0
 26 63  1  0  0  0  0
 27 64  1  0  0  0  0
 27 65  1  0  0  0  0
 32 66  1  0  0  0  0
 37 67  1  0  0  0  0
M  END
> <SMILES>
CN(C)C(=O)CN1C=CC(=CC1=O)c1c(cc2nc(cc(c2c1C)-n1nccc1C)C(=O)NCCO)C

> <FORMATTED_ID>
H3D-005923

> <MOLFORMULA>
C27H30N6O4

> <Exact Mass>
502.23

> <XLogP>
1.79

> <TPSA_NOPS>
120.7

> <s_m_source_file>
ligprep_h3d.sdf

> <i_m_source_file_index>
938

> <i_lp_mmshare_version>
55123

> <i_f3d_flags>
0

> <s_epik_input>
W0NIM11OKFtDSDNdKUMoPU8pW0NIMl1uMVtjSF1bY0hdYyhbY0hdYzE9TyktYyhjKFtjSF0yKVtDSDNdKWMoW0NIM10pYyhjMjMpYygtbjRuW2NIXVtjSF1jNFtDSDNdKVtjSF1jKG4zKUMoPU8pW05IXVtDSDJdW0NIMl1bT0hd

> <s_epik_cmdline>
J2VwaWtfcHl0aG9uJywgJy1waHQnLCAnMC41JywgJy1waCcsICc3LjUnLCAnLXRuJywgJzgnLCAnLW1hJywgJzUwMCcsICctaW1hZScsICc8aW5maWxlLm1hZT4nLCAnLW9tYWUnLCAnPG91dGZpbGUubWFlPic=

> <r_lp_tautomer_probability>
1

> <r_epik_Ionization_Penalty>
1.63551e-05

> <r_epik_Ionization_Penalty_Charging>
7.15659e-08

> <r_epik_Ionization_Penalty_Neutral>
1.62836e-05

> <r_epik_State_Penalty>
-0

> <r_epik_Charging_Adjusted_Penalty>
7.15659e-08

> <i_epik_Tot_Q>
0

> <i_epik_Tot_abs_Q>
0

> <s_lp_Force_Field>
S-OPLS

> <r_lp_Energy>
71.1868

> <b_lp_Chiralities_Consistent>
1

> <s_lp_Variant>
ligprep_h3d.sdf:938-1

> <ROCS_ShapeQuery>
_7L13

> <ROCS_TanimotoCombo>
0.725 

> <ROCS_ShapeTanimoto>
0.617 

> <ROCS_ColorTanimoto>
0.108 

> <ROCS_RefTversky>
0.773 

> <ROCS_RefColorTversky>
0.223 

> <ROCS_RefTverskyCombo>
0.996 

> <ROCS_FitTversky>
0.753 

> <ROCS_FitColorTversky>
0.172 

> <ROCS_FitTverskyCombo>
0.926 

> <ROCS_ColorScore>
-2.043

> <ROCS_Overlap>
1285.460

> <ROCS_Rank>
467                 

$$$$
ligprep_h3d.sdf:1349_1137
  -OEChem-08212117123D

 71 74  0     0  0  0  0  0  0999 V2000
  -17.1080   -6.3051  -26.6559 C   0  0  0  0  0  0  0  0  0  0  0  0
  -23.2646   -4.1475  -28.7054 C   0  0  0  0  0  0  0  0  0  0  0  0
  -20.8135   -4.5157  -25.3697 C   0  0  0  0  0  0  0  0  0  0  0  0
  -16.8787   -4.9215  -26.7786 C   0  0  0  0  0  0  0  0  0  0  0  0
  -21.1127   -4.6573  -27.7645 C   0  0  0  0  0  0  0  0  0  0  0  0
  -22.7757   -4.4039  -29.9888 C   0  0  0  0  0  0  0  0  0  0  0  0
  -20.6208   -4.9152  -29.0553 C   0  0  0  0  0  0  0  0  0  0  0  0
  -22.4555   -4.2668  -27.5787 C   0  0  0  0  0  0  0  0  0  0  0  0
  -20.2977   -4.7773  -26.6308 C   0  0  0  0  0  0  0  0  0  0  0  0
  -21.4522   -4.7882  -30.1643 C   0  0  0  0  0  0  0  0  0  0  0  0
  -22.1389   -4.1398  -25.2877 C   0  0  0  0  0  0  0  0  0  0  0  0
  -18.4745   -6.4215  -26.5827 C   0  0  0  0  0  0  0  0  0  0  0  0
  -22.7416   -3.8521  -23.9973 C   0  0  0  0  0  0  0  0  0  0  0  0
  -19.0131   -5.8641  -35.1438 C   0  0  0  0  0  0  0  0  0  0  0  0
  -19.9574   -4.2337  -33.5477 C   0  0  0  0  0  0  0  0  0  0  0  0
  -20.0326   -6.6820  -33.0374 C   0  0  0  0  0  0  0  0  0  0  0  0
  -20.9995   -3.9769  -32.4599 C   0  0  0  0  0  0  0  0  0  0  0  0
  -21.0799   -6.4204  -31.9569 C   0  0  0  0  0  0  0  0  0  0  0  0
  -20.1029   -5.6319  -34.1436 C   0  0  0  0  0  0  0  0  0  0  0  0
  -23.7025   -4.2570  -31.1520 C   0  0  0  0  0  0  0  0  0  0  0  0
  -19.2057   -5.3351  -29.3323 C   0  0  0  0  0  0  0  0  0  0  0  0
  -19.3301   -7.6166  -26.4462 C   0  0  0  0  0  0  0  0  0  0  0  0
  -18.4711   -7.0634  -37.2534 C   0  0  0  0  0  0  0  0  0  0  0  0
  -28.3113   -6.1018  -23.2953 C   0  0  0  0  0  0  0  0  0  0  0  0
  -24.8584   -3.8535  -22.6521 C   0  0  0  0  0  0  0  0  0  0  0  0
  -26.3217   -4.2263  -22.7929 C   0  0  0  0  0  0  0  0  0  0  0  0
  -18.0090   -4.2100  -26.7835 N   0  0  0  0  0  0  0  0  0  0  0  0
  -22.9588   -4.0122  -26.3561 N   0  0  0  0  0  0  0  0  0  0  0  0
  -18.9618   -5.1501  -26.6632 N   0  0  0  0  0  0  0  0  0  0  0  0
  -20.9687   -5.0439  -31.4533 N   0  0  0  0  0  0  0  0  0  0  0  0
  -24.1116   -4.1087  -23.8629 N   0  0  0  0  0  0  0  0  0  0  0  0
  -19.3700   -6.7064  -36.1794 N   0  0  0  0  0  0  0  0  0  0  0  0
  -22.0580   -3.3791  -23.0711 O   0  0  0  0  0  0  0  0  0  0  0  0
  -17.9264   -5.3188  -34.9908 O   0  0  0  0  0  0  0  0  0  0  0  0
  -26.0220   -6.1321  -24.5567 O   0  0  0  0  0  0  0  0  0  0  0  0
  -26.0716   -6.7360  -22.1063 O   0  0  0  0  0  0  0  0  0  0  0  0
  -26.5436   -5.9261  -23.2163 S   0  0  0  0  0  0  0  0  0  0  0  0
  -16.3822   -7.1046  -26.6255 H   0  0  0  0  0  0  0  0  0  0  0  0
  -24.3043   -3.8456  -28.5833 H   0  0  0  0  0  0  0  0  0  0  0  0
  -20.2032   -4.6002  -24.4749 H   0  0  0  0  0  0  0  0  0  0  0  0
  -15.9350   -4.4023  -26.8648 H   0  0  0  0  0  0  0  0  0  0  0  0
  -20.0890   -3.4967  -34.3397 H   0  0  0  0  0  0  0  0  0  0  0  0
  -18.9615   -4.0973  -33.1302 H   0  0  0  0  0  0  0  0  0  0  0  0
  -19.0421   -6.6899  -32.5825 H   0  0  0  0  0  0  0  0  0  0  0  0
  -20.2062   -7.6691  -33.4690 H   0  0  0  0  0  0  0  0  0  0  0  0
  -20.8113   -3.0084  -31.9802 H   0  0  0  0  0  0  0  0  0  0  0  0
  -21.9899   -3.9244  -32.9284 H   0  0  0  0  0  0  0  0  0  0  0  0
  -22.0749   -6.5835  -32.3907 H   0  0  0  0  0  0  0  0  0  0  0  0
  -20.9664   -7.1320  -31.1295 H   0  0  0  0  0  0  0  0  0  0  0  0
  -21.0347   -5.7126  -34.6684 H   0  0  0  0  0  0  0  0  0  0  0  0
  -23.6642   -3.2329  -31.5399 H   0  0  0  0  0  0  0  0  0  0  0  0
  -23.4351   -4.9481  -31.9603 H   0  0  0  0  0  0  0  0  0  0  0  0
  -24.7362   -4.4847  -30.8650 H   0  0  0  0  0  0  0  0  0  0  0  0
  -19.1303   -6.4255  -29.3084 H   0  0  0  0  0  0  0  0  0  0  0  0
  -18.8795   -4.9767  -30.3131 H   0  0  0  0  0  0  0  0  0  0  0  0
  -18.5233   -4.9142  -28.5878 H   0  0  0  0  0  0  0  0  0  0  0  0
  -19.5126   -7.8555  -25.3857 H   0  0  0  0  0  0  0  0  0  0  0  0
  -20.3111   -7.4809  -26.9327 H   0  0  0  0  0  0  0  0  0  0  0  0
  -18.8769   -8.5057  -26.9170 H   0  0  0  0  0  0  0  0  0  0  0  0
  -18.5744   -6.3390  -38.0748 H   0  0  0  0  0  0  0  0  0  0  0  0
  -17.4353   -7.0525  -36.8833 H   0  0  0  0  0  0  0  0  0  0  0  0
  -18.7191   -8.0706  -37.6195 H   0  0  0  0  0  0  0  0  0  0  0  0
  -28.5433   -7.1359  -23.5549 H   0  0  0  0  0  0  0  0  0  0  0  0
  -28.7263   -5.8505  -22.3181 H   0  0  0  0  0  0  0  0  0  0  0  0
  -28.6911   -5.4214  -24.0589 H   0  0  0  0  0  0  0  0  0  0  0  0
  -24.7355   -2.7944  -22.4054 H   0  0  0  0  0  0  0  0  0  0  0  0
  -24.3930   -4.4484  -21.8603 H   0  0  0  0  0  0  0  0  0  0  0  0
  -26.7865   -3.6478  -23.5969 H   0  0  0  0  0  0  0  0  0  0  0  0
  -26.8766   -4.0520  -21.8661 H   0  0  0  0  0  0  0  0  0  0  0  0
  -24.6358   -4.4350  -24.6683 H   0  0  0  0  0  0  0  0  0  0  0  0
  -20.3090   -7.0932  -36.1863 H   0  0  0  0  0  0  0  0  0  0  0  0
  1  4  1  0  0  0  0
  1 12  2  0  0  0  0
  2  6  1  0  0  0  0
  2  8  2  0  0  0  0
  3  9  2  0  0  0  0
  3 11  1  0  0  0  0
  4 27  2  0  0  0  0
  5  7  2  0  0  0  0
  5  8  1  0  0  0  0
  5  9  1  0  0  0  0
  6 10  2  0  0  0  0
  6 20  1  0  0  0  0
  7 10  1  0  0  0  0
  7 21  1  0  0  0  0
  8 28  1  0  0  0  0
  9 29  1  0  0  0  0
 10 30  1  0  0  0  0
 11 13  1  0  0  0  0
 11 28  2  0  0  0  0
 12 22  1  0  0  0  0
 12 29  1  0  0  0  0
 13 31  1  0  0  0  0
 13 33  2  0  0  0  0
 14 19  1  0  0  0  0
 14 32  1  0  0  0  0
 14 34  2  0  0  0  0
 15 17  1  0  0  0  0
 15 19  1  0  0  0  0
 16 18  1  0  0  0  0
 16 19  1  0  0  0  0
 17 30  1  0  0  0  0
 18 30  1  0  0  0  0
 23 32  1  0  0  0  0
 24 37  1  0  0  0  0
 25 26  1  0  0  0  0
 25 31  1  0  0  0  0
 26 37  1  0  0  0  0
 27 29  1  0  0  0  0
 35 37  2  0  0  0  0
 36 37  2  0  0  0  0
  1 38  1  0  0  0  0
  2 39  1  0  0  0  0
  3 40  1  0  0  0  0
  4 41  1  0  0  0  0
 15 42  1  0  0  0  0
 15 43  1  0  0  0  0
 16 44  1  0  0  0  0
 16 45  1  0  0  0  0
 17 46  1  0  0  0  0
 17 47  1  0  0  0  0
 18 48  1  0  0  0  0
 18 49  1  0  0  0  0
 19 50  1  0  0  0  0
 20 51  1  0  0  0  0
 20 52  1  0  0  0  0
 20 53  1  0  0  0  0
 21 54  1  0  0  0  0
 21 55  1  0  0  0  0
 21 56  1  0  0  0  0
 22 57  1  0  0  0  0
 22 58  1  0  0  0  0
 22 59  1  0  0  0  0
 23 60  1  0  0  0  0
 23 61  1  0  0  0  0
 23 62  1  0  0  0  0
 24 63  1  0  0  0  0
 24 64  1  0  0  0  0
 24 65  1  0  0  0  0
 25 66  1  0  0  0  0
 25 67  1  0  0  0  0
 26 68  1  0  0  0  0
 26 69  1  0  0  0  0
 31 70  1  0  0  0  0
 32 71  1  0  0  0  0
M  END
> <SMILES>
CNC(=O)C1CCN(CC1)c1c(cc2nc(cc(c2c1C)-n1nccc1C)C(=O)NCCS(=O)(=O)C)C

> <FORMATTED_ID>
H3D-009166

> <MOLFORMULA>
C26H34N6O4S

> <Exact Mass>
526.24

> <XLogP>
1.45

> <TPSA_NOPS>
134.7

> <s_m_source_file>
ligprep_h3d.sdf

> <i_m_source_file_index>
1349

> <i_lp_mmshare_version>
55123

> <i_f3d_flags>
0

> <s_epik_input>
W0NIM11bTkhdQyg9TylbQ0hdMVtDSDJdW0NIMl1OKFtDSDJdW0NIMl0xKWMoYyhbY0hdMilbQ0gzXSljKFtDSDNdKWMoYzIzKWMoLW40bltjSF1bY0hdYzRbQ0gzXSlbY0hdYyhuMylDKD1PKVtOSF1bQ0gyXVtDSDJdUyg9TykoPU8pW0NIM10=

> <s_epik_cmdline>
J2VwaWtfcHl0aG9uJywgJy1waHQnLCAnMC41JywgJy1waCcsICc3LjUnLCAnLXRuJywgJzgnLCAnLW1hJywgJzUwMCcsICctaW1hZScsICc8aW5maWxlLm1hZT4nLCAnLW9tYWUnLCAnPG91dGZpbGUubWFlPic=

> <r_lp_tautomer_probability>
1

> <r_epik_Ionization_Penalty>
7.40071e-05

> <r_epik_Ionization_Penalty_Charging>
0

> <r_epik_Ionization_Penalty_Neutral>
7.40071e-05

> <r_epik_State_Penalty>
-0

> <r_epik_Charging_Adjusted_Penalty>
0

> <i_epik_Tot_Q>
0

> <i_epik_Tot_abs_Q>
0

> <s_lp_Force_Field>
S-OPLS

> <r_lp_Energy>
59.7514

> <b_lp_Chiralities_Consistent>
1

> <s_lp_Variant>
ligprep_h3d.sdf:1349-1

> <ROCS_ShapeQuery>
_7L13

> <ROCS_TanimotoCombo>
0.734 

> <ROCS_ShapeTanimoto>
0.627 

> <ROCS_ColorTanimoto>
0.107 

> <ROCS_RefTversky>
0.773 

> <ROCS_RefColorTversky>
0.222 

> <ROCS_RefTverskyCombo>
0.995 

> <ROCS_FitTversky>
0.768 

> <ROCS_FitColorTversky>
0.172 

> <ROCS_FitTverskyCombo>
0.940 

> <ROCS_ColorScore>
-2.035

> <ROCS_Overlap>
1284.011

> <ROCS_Rank>
468                 

$$$$
ligprep_h3d.sdf:736_38
  -OEChem-08212117123D

 58 63  0     1  0  0  0  0  0999 V2000
  -20.9587   -5.1177  -29.5139 C   0  0  0  0  0  0  0  0  0  0  0  0
  -21.7436   -4.3671  -30.3914 C   0  0  0  0  0  0  0  0  0  0  0  0
  -21.0743   -4.8804  -28.1224 C   0  0  0  0  0  0  0  0  0  0  0  0
  -21.9845   -3.9403  -27.5846 C   0  0  0  0  0  0  0  0  0  0  0  0
  -22.6027   -3.4288  -29.8634 C   0  0  0  0  0  0  0  0  0  0  0  0
  -22.7530   -3.1810  -28.4987 C   0  0  0  0  0  0  0  0  0  0  0  0
  -21.9419   -4.2596  -31.7804 C   0  0  0  0  0  0  0  0  0  0  0  0
  -18.9205   -3.7956  -26.2061 C   0  0  0  0  0  0  0  0  0  0  0  0
  -19.2354   -6.0677  -25.0294 C   0  0  0  0  0  0  0  0  0  0  0  0
  -16.9852   -5.2789  -25.7312 C   0  0  0  0  0  0  0  0  0  0  0  0
  -20.1980   -5.6932  -27.2072 C   0  0  0  0  0  0  0  0  0  0  0  0
  -21.3083   -6.5031  -32.7049 C   0  0  0  0  0  0  0  0  0  0  0  0
  -20.3769   -4.5158  -33.7224 C   0  0  0  0  0  0  0  0  0  0  0  0
  -23.0610   -2.8108  -25.6485 C   0  0  0  0  0  0  0  0  0  0  0  0
  -21.2067   -4.4711  -25.2400 C   0  0  2  0  0  0  0  0  0  0  0  0
  -20.1769   -6.8996  -33.6509 C   0  0  2  0  0  0  0  0  0  0  0  0
  -20.0911   -5.7222  -34.6062 C   0  0  2  0  0  0  0  0  0  0  0  0
  -23.4281   -3.1296  -24.1965 C   0  0  1  0  0  0  0  0  0  0  0  0
  -21.0506   -3.5371  -24.0047 C   0  0  2  0  0  0  0  0  0  0  0  0
  -19.8728   -4.9586  -25.8827 C   0  0  0  0  0  0  0  0  0  0  0  0
  -24.4038   -4.2990  -24.0795 C   0  0  0  0  0  0  0  0  0  0  0  0
  -20.0912   -4.0125  -22.9201 C   0  0  0  0  0  0  0  0  0  0  0  0
  -22.8492   -3.3290  -32.0923 N   0  0  0  0  0  0  0  0  0  0  0  0
  -17.5743   -4.1246  -26.2266 N   0  0  0  0  0  0  0  0  0  0  0  0
  -17.8572   -6.1760  -25.1309 N   0  0  0  0  0  0  0  0  0  0  0  0
  -22.0963   -3.7694  -26.2027 N   0  0  3  0  0  0  0  0  0  0  0  0
  -21.2520   -5.0440  -32.6802 N   0  0  0  0  0  0  0  0  0  0  0  0
  -19.3102   -2.6634  -26.4919 O   0  0  0  0  0  0  0  0  0  0  0  0
  -19.8996   -6.8671  -24.3683 O   0  0  0  0  0  0  0  0  0  0  0  0
  -15.7698   -5.4747  -25.7838 O   0  0  0  0  0  0  0  0  0  0  0  0
  -23.2646   -2.8026  -30.8747 O   0  0  0  0  0  0  0  0  0  0  0  0
  -22.3138   -3.3817  -23.3460 O   0  0  0  0  0  0  0  0  0  0  0  0
  -20.4888   -8.0841  -34.3604 O   0  0  0  0  0  0  0  0  0  0  0  0
  -23.5432   -2.1652  -28.1319 F   0  0  0  0  0  0  0  0  0  0  0  0
  -18.8428   -5.6383  -35.1250 F   0  0  0  0  0  0  0  0  0  0  0  0
  -20.2652   -5.8638  -29.8916 H   0  0  0  0  0  0  0  0  0  0  0  0
  -20.7181   -6.6407  -27.0100 H   0  0  0  0  0  0  0  0  0  0  0  0
  -19.2646   -5.9497  -27.7271 H   0  0  0  0  0  0  0  0  0  0  0  0
  -22.2850   -6.8415  -33.0735 H   0  0  0  0  0  0  0  0  0  0  0  0
  -21.1527   -6.9353  -31.7092 H   0  0  0  0  0  0  0  0  0  0  0  0
  -19.4536   -4.1190  -33.2834 H   0  0  0  0  0  0  0  0  0  0  0  0
  -20.8587   -3.7157  -34.2961 H   0  0  0  0  0  0  0  0  0  0  0  0
  -23.9723   -2.8594  -26.2798 H   0  0  0  0  0  0  0  0  0  0  0  0
  -22.7580   -1.7532  -25.6878 H   0  0  0  0  0  0  0  0  0  0  0  0
  -21.7776   -5.3544  -24.9140 H   0  0  0  0  0  0  0  0  0  0  0  0
  -19.2323   -7.0417  -33.1142 H   0  0  0  0  0  0  0  0  0  0  0  0
  -20.8048   -5.8070  -35.4330 H   0  0  0  0  0  0  0  0  0  0  0  0
  -23.9821   -2.2271  -23.7606 H   0  0  0  0  0  0  0  0  0  0  0  0
  -20.7137   -2.5309  -24.3145 H   0  0  0  0  0  0  0  0  0  0  0  0
  -23.9483   -5.2062  -24.4769 H   0  0  0  0  0  0  0  0  0  0  0  0
  -25.3126   -4.0844  -24.6420 H   0  0  0  0  0  0  0  0  0  0  0  0
  -24.6655   -4.4635  -23.0341 H   0  0  0  0  0  0  0  0  0  0  0  0
  -20.3795   -5.0061  -22.5769 H   0  0  0  0  0  0  0  0  0  0  0  0
  -20.1149   -3.3254  -22.0743 H   0  0  0  0  0  0  0  0  0  0  0  0
  -19.0756   -4.0548  -23.3135 H   0  0  0  0  0  0  0  0  0  0  0  0
  -16.9500   -3.4456  -26.6512 H   0  0  0  0  0  0  0  0  0  0  0  0
  -17.4324   -6.9751  -24.6693 H   0  0  0  0  0  0  0  0  0  0  0  0
  -20.6260   -8.7850  -33.7003 H   0  0  0  0  0  0  0  0  0  0  0  0
  1  2  2  0  0  0  0
  1  3  1  0  0  0  0
  2  5  1  0  0  0  0
  2  7  1  0  0  0  0
  3  4  2  0  0  0  0
  3 11  1  0  0  0  0
  4  6  1  0  0  0  0
  4 26  1  0  0  0  0
  5  6  2  0  0  0  0
  5 31  1  0  0  0  0
  6 34  1  0  0  0  0
  7 23  2  0  0  0  0
  7 27  1  0  0  0  0
  8 20  1  0  0  0  0
  8 24  1  0  0  0  0
  8 28  2  0  0  0  0
  9 20  1  0  0  0  0
  9 25  1  0  0  0  0
  9 29  2  0  0  0  0
 10 24  1  0  0  0  0
 10 25  1  0  0  0  0
 10 30  2  0  0  0  0
 11 20  1  0  0  0  0
 12 16  1  0  0  0  0
 12 27  1  0  0  0  0
 13 17  1  0  0  0  0
 13 27  1  0  0  0  0
 14 18  1  0  0  0  0
 14 26  1  0  0  0  0
 15 19  1  0  0  0  0
 15 20  1  0  0  0  0
 15 26  1  0  0  0  0
 16 17  1  0  0  0  0
 16 33  1  0  0  0  0
 17 35  1  0  0  0  0
 18 21  1  0  0  0  0
 18 32  1  0  0  0  0
 19 22  1  0  0  0  0
 19 32  1  0  0  0  0
 23 31  1  0  0  0  0
  1 36  1  0  0  0  0
 11 37  1  0  0  0  0
 11 38  1  0  0  0  0
 12 39  1  0  0  0  0
 12 40  1  0  0  0  0
 13 41  1  0  0  0  0
 13 42  1  0  0  0  0
 14 43  1  0  0  0  0
 14 44  1  0  0  0  0
 15 45  1  0  0  0  0
 16 46  1  0  0  0  0
 17 47  1  0  0  0  0
 18 48  1  0  0  0  0
 19 49  1  0  0  0  0
 21 50  1  0  0  0  0
 21 51  1  0  0  0  0
 21 52  1  0  0  0  0
 22 53  1  0  0  0  0
 22 54  1  0  0  0  0
 22 55  1  0  0  0  0
 24 56  1  0  0  0  0
 25 57  1  0  0  0  0
 33 58  1  0  0  0  0
M  END
> <SMILES>
C[C@@H]1CN2[C@H]([C@H](C)O1)C1(Cc3cc4c(noc4c(c32)F)N2C[C@@H](O)[C@H](F)C2)C(=O)NC(=O)NC1=O

> <FORMATTED_ID>
H3D-004991

> <MOLFORMULA>
C22H23F2N5O6

> <Exact Mass>
491.16

> <XLogP>
-0.49

> <TPSA_NOPS>
137.5

> <s_m_source_file>
ligprep_h3d.sdf

> <i_m_source_file_index>
736

> <i_lp_mmshare_version>
55123

> <i_f3d_flags>
0

> <s_epik_input>
Tz1DMVtOSF1DKD1PKVtOSF1DKD1PKUMxMltDQEBIXTNOKFtDSDJdW0NAQEhdKFtDSDNdKU9bQ0BIXTNbQ0gzXSljNGMoW0NIMl0yKVtjSF1jNWMoYzRGKW9uYzVONltDSDJdW0NAQEhdKFtPSF0pW0NASF0oRilbQ0gyXTY=

> <s_epik_cmdline>
J2VwaWtfcHl0aG9uJywgJy1waHQnLCAnMC41JywgJy1waCcsICc3LjUnLCAnLXRuJywgJzgnLCAnLW1hJywgJzUwMCcsICctaW1hZScsICc8aW5maWxlLm1hZT4nLCAnLW9tYWUnLCAnPG91dGZpbGUubWFlPic=

> <r_lp_tautomer_probability>
1

> <r_epik_Ionization_Penalty>
0.369135

> <r_epik_Ionization_Penalty_Charging>
0

> <r_epik_Ionization_Penalty_Neutral>
0.369135

> <r_epik_State_Penalty>
0.366447

> <r_epik_Charging_Adjusted_Penalty>
0.366447

> <i_epik_Tot_Q>
0

> <i_epik_Tot_abs_Q>
0

> <s_lp_Force_Field>
S-OPLS

> <r_lp_Energy>
45.4352

> <b_lp_Chiralities_Consistent>
1

> <s_lp_Variant>
ligprep_h3d.sdf:736-1

> <ROCS_ShapeQuery>
_7L13

> <ROCS_TanimotoCombo>
0.760 

> <ROCS_ShapeTanimoto>
0.630 

> <ROCS_ColorTanimoto>
0.130 

> <ROCS_RefTversky>
0.773 

> <ROCS_RefColorTversky>
0.298 

> <ROCS_RefTverskyCombo>
1.070 

> <ROCS_FitTversky>
0.773 

> <ROCS_FitColorTversky>
0.188 

> <ROCS_FitTverskyCombo>
0.961 

> <ROCS_ColorScore>
-2.768

> <ROCS_Overlap>
1283.476

> <ROCS_Rank>
469                 

$$$$
ligprep_h3d.sdf:4723_1194
  -OEChem-08212117123D

 76 82  0     1  0  0  0  0  0999 V2000
  -16.0102   -4.0464  -23.6154 C   0  0  0  0  0  0  0  0  0  0  0  0
  -16.0707   -5.2684  -24.2851 C   0  0  0  0  0  0  0  0  0  0  0  0
  -16.8058   -2.9805  -24.0358 C   0  0  0  0  0  0  0  0  0  0  0  0
  -19.5376   -5.2210  -34.4454 C   0  0  0  0  0  0  0  0  0  0  0  0
  -21.3675   -6.0794  -33.1219 C   0  0  0  0  0  0  0  0  0  0  0  0
  -16.9265   -5.4245  -25.3754 C   0  0  0  0  0  0  0  0  0  0  0  0
  -17.6616   -3.1366  -25.1261 C   0  0  0  0  0  0  0  0  0  0  0  0
  -19.5058   -6.4105  -35.1730 C   0  0  0  0  0  0  0  0  0  0  0  0
  -21.3357   -7.2690  -33.8496 C   0  0  0  0  0  0  0  0  0  0  0  0
  -20.4684   -5.0554  -33.4197 C   0  0  0  0  0  0  0  0  0  0  0  0
  -17.7220   -4.3586  -25.7959 C   0  0  0  0  0  0  0  0  0  0  0  0
  -20.4048   -7.4345  -34.8752 C   0  0  0  0  0  0  0  0  0  0  0  0
  -21.5745   -3.7880  -31.5766 C   0  0  0  0  0  0  0  0  0  0  0  0
  -24.9974   -5.7865  -22.7678 C   0  0  0  0  0  0  0  0  0  0  0  0
  -26.1355   -3.7643  -23.7220 C   0  0  0  0  0  0  0  0  0  0  0  0
  -23.8481   -3.5570  -22.7121 C   0  0  0  0  0  0  0  0  0  0  0  0
  -25.3012   -5.5722  -25.2501 C   0  0  0  0  0  0  0  0  0  0  0  0
  -23.0068   -5.3642  -24.2373 C   0  0  0  0  0  0  0  0  0  0  0  0
  -24.1483   -3.3357  -25.1942 C   0  0  0  0  0  0  0  0  0  0  0  0
  -22.1053   -4.2868  -29.2063 C   0  0  0  0  0  0  0  0  0  0  0  0
  -18.8391   -5.6294  -27.7410 C   0  0  0  0  0  0  0  0  0  0  0  0
  -19.2579   -3.5640  -27.7075 C   0  0  0  0  0  0  0  0  0  0  0  0
  -19.8306   -4.6759  -29.9626 C   0  0  0  0  0  0  0  0  0  0  0  0
  -25.9378   -5.2832  -23.8779 C   0  0  0  0  0  0  0  0  0  0  0  0
  -23.6357   -5.0744  -22.8616 C   0  0  0  0  0  0  0  0  0  0  0  0
  -24.7811   -3.0391  -23.8218 C   0  0  0  0  0  0  0  0  0  0  0  0
  -21.3865   -5.1211  -28.1546 C   0  0  1  0  0  0  0  0  0  0  0  0
  -19.9177   -4.7680  -28.4366 C   0  0  0  0  0  0  0  0  0  0  0  0
  -23.9445   -4.8531  -25.3445 C   0  0  0  0  0  0  0  0  0  0  0  0
  -20.5032   -3.7762  -32.6376 C   0  0  0  0  0  0  0  0  0  0  0  0
  -21.8748   -4.8557  -26.7427 C   0  0  0  0  0  0  0  0  0  0  0  0
  -18.5823   -4.5152  -26.8915 N   0  0  0  0  0  0  0  0  0  0  0  0
  -21.1747   -4.2302  -30.3259 N   0  0  0  0  0  0  0  0  0  0  0  0
  -23.3345   -5.1345  -26.6686 N   0  3  0  0  0  0  0  0  0  0  0  0
  -22.7184   -3.4150  -31.8429 O   0  0  0  0  0  0  0  0  0  0  0  0
  -20.3745   -8.5947  -35.5862 O   0  0  0  0  0  0  0  0  0  0  0  0
  -15.3436   -3.9248  -22.7664 H   0  0  0  0  0  0  0  0  0  0  0  0
  -15.4513   -6.0980  -23.9578 H   0  0  0  0  0  0  0  0  0  0  0  0
  -16.7586   -2.0289  -23.5141 H   0  0  0  0  0  0  0  0  0  0  0  0
  -18.8334   -4.4285  -34.6842 H   0  0  0  0  0  0  0  0  0  0  0  0
  -22.0962   -5.9593  -32.3243 H   0  0  0  0  0  0  0  0  0  0  0  0
  -16.9661   -6.3808  -25.8906 H   0  0  0  0  0  0  0  0  0  0  0  0
  -18.2770   -2.2990  -25.4447 H   0  0  0  0  0  0  0  0  0  0  0  0
  -18.7784   -6.5334  -35.9711 H   0  0  0  0  0  0  0  0  0  0  0  0
  -22.0388   -8.0626  -33.6130 H   0  0  0  0  0  0  0  0  0  0  0  0
  -25.4480   -5.6031  -21.7846 H   0  0  0  0  0  0  0  0  0  0  0  0
  -24.8594   -6.8710  -22.8577 H   0  0  0  0  0  0  0  0  0  0  0  0
  -26.8164   -3.3940  -24.4983 H   0  0  0  0  0  0  0  0  0  0  0  0
  -26.6058   -3.5460  -22.7553 H   0  0  0  0  0  0  0  0  0  0  0  0
  -24.2789   -3.3352  -21.7279 H   0  0  0  0  0  0  0  0  0  0  0  0
  -22.8833   -3.0374  -22.7619 H   0  0  0  0  0  0  0  0  0  0  0  0
  -25.1745   -6.6552  -25.3756 H   0  0  0  0  0  0  0  0  0  0  0  0
  -25.9752   -5.2323  -26.0469 H   0  0  0  0  0  0  0  0  0  0  0  0
  -22.0267   -4.8744  -24.3035 H   0  0  0  0  0  0  0  0  0  0  0  0
  -22.8355   -6.4431  -24.3430 H   0  0  0  0  0  0  0  0  0  0  0  0
  -24.8000   -2.9523  -25.9899 H   0  0  0  0  0  0  0  0  0  0  0  0
  -23.1907   -2.8064  -25.2792 H   0  0  0  0  0  0  0  0  0  0  0  0
  -23.0026   -4.7989  -29.5665 H   0  0  0  0  0  0  0  0  0  0  0  0
  -22.3848   -3.2849  -28.8745 H   0  0  0  0  0  0  0  0  0  0  0  0
  -19.2063   -6.4994  -27.1804 H   0  0  0  0  0  0  0  0  0  0  0  0
  -17.9687   -5.9223  -28.3390 H   0  0  0  0  0  0  0  0  0  0  0  0
  -18.5812   -2.9496  -28.3039 H   0  0  0  0  0  0  0  0  0  0  0  0
  -19.9400   -2.9332  -27.1308 H   0  0  0  0  0  0  0  0  0  0  0  0
  -19.1234   -3.9046  -30.2854 H   0  0  0  0  0  0  0  0  0  0  0  0
  -19.5861   -5.6214  -30.4552 H   0  0  0  0  0  0  0  0  0  0  0  0
  -26.9049   -5.7924  -23.8034 H   0  0  0  0  0  0  0  0  0  0  0  0
  -22.9726   -5.4359  -22.0676 H   0  0  0  0  0  0  0  0  0  0  0  0
  -24.9292   -1.9596  -23.7077 H   0  0  0  0  0  0  0  0  0  0  0  0
  -21.5764   -6.2181  -28.3730 H   0  0  0  0  0  0  0  0  0  0  0  0
  -19.5391   -3.6029  -32.1563 H   0  0  0  0  0  0  0  0  0  0  0  0
  -20.6799   -2.9244  -33.2961 H   0  0  0  0  0  0  0  0  0  0  0  0
  -21.7323   -3.8104  -26.4552 H   0  0  0  0  0  0  0  0  0  0  0  0
  -21.3855   -5.5101  -26.0160 H   0  0  0  0  0  0  0  0  0  0  0  0
  -23.5006   -6.1203  -26.9161 H   0  0  0  0  0  0  0  0  0  0  0  0
  -23.8188   -4.5810  -27.3897 H   0  0  0  0  0  0  0  0  0  0  0  0
  -21.0562   -9.2052  -35.2630 H   0  0  0  0  0  0  0  0  0  0  0  0
  1  2  2  0  0  0  0
  1  3  1  0  0  0  0
  2  6  1  0  0  0  0
  3  7  2  0  0  0  0
  4  8  1  0  0  0  0
  4 10  2  0  0  0  0
  5  9  2  0  0  0  0
  5 10  1  0  0  0  0
  6 11  2  0  0  0  0
  7 11  1  0  0  0  0
  8 12  2  0  0  0  0
  9 12  1  0  0  0  0
 10 30  1  0  0  0  0
 11 32  1  0  0  0  0
 12 36  1  0  0  0  0
 13 30  1  0  0  0  0
 13 33  1  0  0  0  0
 13 35  2  0  0  0  0
 14 24  1  0  0  0  0
 14 25  1  0  0  0  0
 15 24  1  0  0  0  0
 15 26  1  0  0  0  0
 16 25  1  0  0  0  0
 16 26  1  0  0  0  0
 17 24  1  0  0  0  0
 17 29  1  0  0  0  0
 18 25  1  0  0  0  0
 18 29  1  0  0  0  0
 19 26  1  0  0  0  0
 19 29  1  0  0  0  0
 20 27  1  0  0  0  0
 20 33  1  0  0  0  0
 21 28  1  0  0  0  0
 21 32  1  0  0  0  0
 22 28  1  0  0  0  0
 22 32  1  0  0  0  0
 23 28  1  0  0  0  0
 23 33  1  0  0  0  0
 27 28  1  0  0  0  0
 27 31  1  0  0  0  0
 29 34  1  0  0  0  0
 31 34  1  0  0  0  0
  1 37  1  0  0  0  0
  2 38  1  0  0  0  0
  3 39  1  0  0  0  0
  4 40  1  0  0  0  0
  5 41  1  0  0  0  0
  6 42  1  0  0  0  0
  7 43  1  0  0  0  0
  8 44  1  0  0  0  0
  9 45  1  0  0  0  0
 14 46  1  0  0  0  0
 14 47  1  0  0  0  0
 15 48  1  0  0  0  0
 15 49  1  0  0  0  0
 16 50  1  0  0  0  0
 16 51  1  0  0  0  0
 17 52  1  0  0  0  0
 17 53  1  0  0  0  0
 18 54  1  0  0  0  0
 18 55  1  0  0  0  0
 19 56  1  0  0  0  0
 19 57  1  0  0  0  0
 20 58  1  0  0  0  0
 20 59  1  0  0  0  0
 21 60  1  0  0  0  0
 21 61  1  0  0  0  0
 22 62  1  0  0  0  0
 22 63  1  0  0  0  0
 23 64  1  0  0  0  0
 23 65  1  0  0  0  0
 24 66  1  0  0  0  0
 25 67  1  0  0  0  0
 26 68  1  0  0  0  0
 27 69  1  0  0  0  0
 30 70  1  0  0  0  0
 30 71  1  0  0  0  0
 31 72  1  0  0  0  0
 31 73  1  0  0  0  0
 34 74  1  0  0  0  0
 34 75  1  0  0  0  0
 36 76  1  0  0  0  0
M  CHG  1  34   1
M  END
> <SMILES>
Oc1ccc(cc1)CC(=O)N1CC(CNC23CC4CC(CC(C4)C3)C2)C2(C1)CN(C2)c1ccccc1

> <FORMATTED_ID>
H3D-006941

> <MOLFORMULA>
C31H39N3O2

> <Exact Mass>
485.3

> <XLogP>
4.64

> <TPSA_NOPS>
55.8

> <s_m_source_file>
ligprep_h3d.sdf

> <i_m_source_file_index>
4723

> <i_lp_mmshare_version>
55123

> <i_f3d_flags>
0

> <s_epik_input>
W09IXWMxW2NIXVtjSF1jKFtjSF1bY0hdMSlbQ0gyXUMoPU8pTihbQ0gyXTIpW0NIMl1bQ0BASF0oQzIzW0NIMl1OKFtDSDJdMyljNFtjSF1bY0hdW2NIXVtjSF1bY0hdNClbQ0gyXVtOSF1DNTZbQ0gyXVtDQEhdN1tDSDJdW0NAQEhdKFtDSDJdNilbQ0gyXVtDQEhdKFtDSDJdNylbQ0gyXTU=

> <s_epik_cmdline>
J2VwaWtfcHl0aG9uJywgJy1waHQnLCAnMC41JywgJy1waCcsICc3LjUnLCAnLXRuJywgJzgnLCAnLW1hJywgJzUwMCcsICctaW1hZScsICc8aW5maWxlLm1hZT4nLCAnLW9tYWUnLCAnPG91dGZpbGUubWFlPic=

> <r_lp_tautomer_probability>
1

> <r_epik_Ionization_Penalty>
0.00382148

> <r_epik_Ionization_Penalty_Charging>
0.000273543

> <r_epik_Ionization_Penalty_Neutral>
0.00354793

> <r_epik_State_Penalty>
-0

> <r_epik_Charging_Adjusted_Penalty>
0.000273543

> <i_epik_Tot_Q>
1

> <i_epik_Tot_abs_Q>
1

> <s_lp_Force_Field>
S-OPLS

> <r_lp_Energy>
30.5717

> <b_lp_Chiralities_Consistent>
1

> <s_lp_Variant>
ligprep_h3d.sdf:4723-1

> <ROCS_ShapeQuery>
_7L13

> <ROCS_TanimotoCombo>
0.731 

> <ROCS_ShapeTanimoto>
0.631 

> <ROCS_ColorTanimoto>
0.100 

> <ROCS_RefTversky>
0.773 

> <ROCS_RefColorTversky>
0.238 

> <ROCS_RefTverskyCombo>
1.011 

> <ROCS_FitTversky>
0.775 

> <ROCS_FitColorTversky>
0.146 

> <ROCS_FitTverskyCombo>
0.922 

> <ROCS_ColorScore>
-2.220

> <ROCS_Overlap>
1283.219

> <ROCS_Rank>
470                 

$$$$
ligprep_h3d.sdf:5233_1417
  -OEChem-08212117123D

 66 69  0     0  0  0  0  0  0999 V2000
  -19.3422   -6.1080  -36.4957 C   0  0  0  0  0  0  0  0  0  0  0  0
  -19.2624   -7.2788  -35.7417 C   0  0  0  0  0  0  0  0  0  0  0  0
  -19.8293   -4.9367  -35.9157 C   0  0  0  0  0  0  0  0  0  0  0  0
  -19.6697   -7.2783  -34.4077 C   0  0  0  0  0  0  0  0  0  0  0  0
  -20.2367   -4.9362  -34.5816 C   0  0  0  0  0  0  0  0  0  0  0  0
  -22.5363   -4.6855  -28.5517 C   0  0  0  0  0  0  0  0  0  0  0  0
  -19.8117   -4.7565  -29.2714 C   0  0  0  0  0  0  0  0  0  0  0  0
  -21.5447   -4.7095  -27.5770 C   0  0  0  0  0  0  0  0  0  0  0  0
  -20.1568   -6.1070  -33.8276 C   0  0  0  0  0  0  0  0  0  0  0  0
  -20.8075   -4.7335  -30.2516 C   0  0  0  0  0  0  0  0  0  0  0  0
  -20.1935   -4.7497  -27.9365 C   0  0  0  0  0  0  0  0  0  0  0  0
  -22.1609   -4.7007  -29.8949 C   0  0  0  0  0  0  0  0  0  0  0  0
  -24.9411   -3.9529  -23.1976 C   0  0  0  0  0  0  0  0  0  0  0  0
  -17.9958   -4.7868  -26.7626 C   0  0  0  0  0  0  0  0  0  0  0  0
  -22.6895   -5.7140  -25.5240 C   0  0  0  0  0  0  0  0  0  0  0  0
  -22.1588   -3.2122  -25.6725 C   0  0  0  0  0  0  0  0  0  0  0  0
  -24.0627   -5.1447  -25.1760 C   0  0  0  0  0  0  0  0  0  0  0  0
  -22.8016   -3.1745  -24.2892 C   0  0  0  0  0  0  0  0  0  0  0  0
  -20.2678   -4.9287  -25.6082 C   0  0  0  0  0  0  0  0  0  0  0  0
  -21.7232   -4.6411  -26.0732 C   0  0  0  0  0  0  0  0  0  0  0  0
  -24.7676   -2.8186  -22.2170 C   0  0  0  0  0  0  0  0  0  0  0  0
  -17.1805   -6.3874  -25.0508 C   0  0  0  0  0  0  0  0  0  0  0  0
  -16.0678   -4.1498  -25.3220 C   0  0  0  0  0  0  0  0  0  0  0  0
  -23.5609   -3.4050  -31.3156 C   0  0  0  0  0  0  0  0  0  0  0  0
  -20.5979   -6.1058  -32.3842 C   0  0  0  0  0  0  0  0  0  0  0  0
  -20.4071   -4.7434  -31.6914 C   0  0  0  0  0  0  0  0  0  0  0  0
  -17.3802   -4.9178  -25.3895 C   0  0  0  0  0  0  0  0  0  0  0  0
  -19.3838   -4.7934  -26.7841 N   0  0  0  0  0  0  0  0  0  0  0  0
  -23.9597   -4.0709  -24.1842 N   0  0  0  0  0  0  0  0  0  0  0  0
  -25.9141   -4.7035  -23.0942 O   0  0  0  0  0  0  0  0  0  0  0  0
  -17.2594   -4.6740  -27.7430 O   0  0  0  0  0  0  0  0  0  0  0  0
  -23.1300   -4.6834  -30.8540 O   0  0  0  0  0  0  0  0  0  0  0  0
  -19.0238   -6.1082  -37.5341 H   0  0  0  0  0  0  0  0  0  0  0  0
  -18.8821   -8.1906  -36.1929 H   0  0  0  0  0  0  0  0  0  0  0  0
  -19.8906   -4.0247  -36.5021 H   0  0  0  0  0  0  0  0  0  0  0  0
  -19.6040   -8.1952  -33.8279 H   0  0  0  0  0  0  0  0  0  0  0  0
  -20.6150   -4.0190  -34.1381 H   0  0  0  0  0  0  0  0  0  0  0  0
  -23.5857   -4.6560  -28.2759 H   0  0  0  0  0  0  0  0  0  0  0  0
  -18.7725   -4.7776  -29.5753 H   0  0  0  0  0  0  0  0  0  0  0  0
  -22.2604   -6.2008  -24.6371 H   0  0  0  0  0  0  0  0  0  0  0  0
  -22.8262   -6.5125  -26.2674 H   0  0  0  0  0  0  0  0  0  0  0  0
  -22.8814   -2.8224  -26.3998 H   0  0  0  0  0  0  0  0  0  0  0  0
  -21.3017   -2.5291  -25.6978 H   0  0  0  0  0  0  0  0  0  0  0  0
  -24.5509   -4.7844  -26.0882 H   0  0  0  0  0  0  0  0  0  0  0  0
  -24.7134   -5.9177  -24.7498 H   0  0  0  0  0  0  0  0  0  0  0  0
  -22.0833   -3.4898  -23.5146 H   0  0  0  0  0  0  0  0  0  0  0  0
  -23.0685   -2.1368  -24.0478 H   0  0  0  0  0  0  0  0  0  0  0  0
  -19.9222   -4.2216  -24.8473 H   0  0  0  0  0  0  0  0  0  0  0  0
  -20.1449   -5.9392  -25.2066 H   0  0  0  0  0  0  0  0  0  0  0  0
  -25.2709   -1.9375  -22.6011 H   0  0  0  0  0  0  0  0  0  0  0  0
  -23.7088   -2.6159  -22.0917 H   0  0  0  0  0  0  0  0  0  0  0  0
  -25.1978   -3.1052  -21.2628 H   0  0  0  0  0  0  0  0  0  0  0  0
  -16.4824   -6.8726  -25.7422 H   0  0  0  0  0  0  0  0  0  0  0  0
  -18.1279   -6.9365  -25.0899 H   0  0  0  0  0  0  0  0  0  0  0  0
  -16.7774   -6.4912  -24.0377 H   0  0  0  0  0  0  0  0  0  0  0  0
  -15.3320   -4.5581  -26.0238 H   0  0  0  0  0  0  0  0  0  0  0  0
  -15.6285   -4.1815  -24.3183 H   0  0  0  0  0  0  0  0  0  0  0  0
  -16.2309   -3.0990  -25.5844 H   0  0  0  0  0  0  0  0  0  0  0  0
  -24.3342   -3.5334  -32.0770 H   0  0  0  0  0  0  0  0  0  0  0  0
  -22.7097   -2.8617  -31.7336 H   0  0  0  0  0  0  0  0  0  0  0  0
  -23.9716   -2.8429  -30.4736 H   0  0  0  0  0  0  0  0  0  0  0  0
  -21.6579   -6.3896  -32.3490 H   0  0  0  0  0  0  0  0  0  0  0  0
  -20.0639   -6.8890  -31.8308 H   0  0  0  0  0  0  0  0  0  0  0  0
  -21.0040   -3.9920  -32.2344 H   0  0  0  0  0  0  0  0  0  0  0  0
  -19.3616   -4.4117  -31.8048 H   0  0  0  0  0  0  0  0  0  0  0  0
  -18.0812   -4.4781  -24.6761 H   0  0  0  0  0  0  0  0  0  0  0  0
  1  2  2  0  0  0  0
  1  3  1  0  0  0  0
  2  4  1  0  0  0  0
  3  5  2  0  0  0  0
  4  9  2  0  0  0  0
  5  9  1  0  0  0  0
  6  8  1  0  0  0  0
  6 12  2  0  0  0  0
  7 10  2  0  0  0  0
  7 11  1  0  0  0  0
  8 11  2  0  0  0  0
  8 20  1  0  0  0  0
  9 25  1  0  0  0  0
 10 12  1  0  0  0  0
 10 26  1  0  0  0  0
 11 28  1  0  0  0  0
 12 32  1  0  0  0  0
 13 21  1  0  0  0  0
 13 29  1  0  0  0  0
 13 30  2  0  0  0  0
 14 27  1  0  0  0  0
 14 28  1  0  0  0  0
 14 31  2  0  0  0  0
 15 17  1  0  0  0  0
 15 20  1  0  0  0  0
 16 18  1  0  0  0  0
 16 20  1  0  0  0  0
 17 29  1  0  0  0  0
 18 29  1  0  0  0  0
 19 20  1  0  0  0  0
 19 28  1  0  0  0  0
 22 27  1  0  0  0  0
 23 27  1  0  0  0  0
 24 32  1  0  0  0  0
 25 26  1  0  0  0  0
  1 33  1  0  0  0  0
  2 34  1  0  0  0  0
  3 35  1  0  0  0  0
  4 36  1  0  0  0  0
  5 37  1  0  0  0  0
  6 38  1  0  0  0  0
  7 39  1  0  0  0  0
 15 40  1  0  0  0  0
 15 41  1  0  0  0  0
 16 42  1  0  0  0  0
 16 43  1  0  0  0  0
 17 44  1  0  0  0  0
 17 45  1  0  0  0  0
 18 46  1  0  0  0  0
 18 47  1  0  0  0  0
 19 48  1  0  0  0  0
 19 49  1  0  0  0  0
 21 50  1  0  0  0  0
 21 51  1  0  0  0  0
 21 52  1  0  0  0  0
 22 53  1  0  0  0  0
 22 54  1  0  0  0  0
 22 55  1  0  0  0  0
 23 56  1  0  0  0  0
 23 57  1  0  0  0  0
 23 58  1  0  0  0  0
 24 59  1  0  0  0  0
 24 60  1  0  0  0  0
 24 61  1  0  0  0  0
 25 62  1  0  0  0  0
 25 63  1  0  0  0  0
 26 64  1  0  0  0  0
 26 65  1  0  0  0  0
 27 66  1  0  0  0  0
M  END
> <SMILES>
COc1cc2c(cc1CCc1ccccc1)N(CC12CCN(CC1)C(=O)C)C(=O)C(C)C

> <FORMATTED_ID>
H3D-014050

> <MOLFORMULA>
C27H34N2O3

> <Exact Mass>
434.26

> <XLogP>
6

> <TPSA_NOPS>
49.8

> <s_m_source_file>
ligprep_h3d.sdf

> <i_m_source_file_index>
5233

> <i_lp_mmshare_version>
55123

> <i_f3d_flags>
0

> <s_epik_input>
W2NIXTFbY0hdW2NIXVtjSF1bY0hdYzFbQ0gyXVtDSDJdYyhjKFtjSF0yKU9bQ0gzXSlbY0hdYyhOKFtDSDJdMylDKD1PKVtDSF0oW0NIM10pW0NIM10pYzJDMzRbQ0gyXVtDSDJdTihbQ0gyXVtDSDJdNClDKD1PKVtDSDNd

> <s_epik_cmdline>
J2VwaWtfcHl0aG9uJywgJy1waHQnLCAnMC41JywgJy1waCcsICc3LjUnLCAnLXRuJywgJzgnLCAnLW1hJywgJzUwMCcsICctaW1hZScsICc8aW5maWxlLm1hZT4nLCAnLW9tYWUnLCAnPG91dGZpbGUubWFlPic=

> <r_lp_tautomer_probability>
1

> <r_epik_Ionization_Penalty>
3.28845e-05

> <r_epik_Ionization_Penalty_Charging>
0

> <r_epik_Ionization_Penalty_Neutral>
3.28845e-05

> <r_epik_State_Penalty>
-0

> <r_epik_Charging_Adjusted_Penalty>
0

> <i_epik_Tot_Q>
0

> <i_epik_Tot_abs_Q>
0

> <s_lp_Force_Field>
S-OPLS

> <r_lp_Energy>
56.284

> <b_lp_Chiralities_Consistent>
1

> <s_lp_Variant>
ligprep_h3d.sdf:5233-1

> <ROCS_ShapeQuery>
_7L13

> <ROCS_TanimotoCombo>
0.786 

> <ROCS_ShapeTanimoto>
0.699 

> <ROCS_ColorTanimoto>
0.086 

> <ROCS_RefTversky>
0.773 

> <ROCS_RefColorTversky>
0.151 

> <ROCS_RefTverskyCombo>
0.924 

> <ROCS_FitTversky>
0.880 

> <ROCS_FitColorTversky>
0.167 

> <ROCS_FitTverskyCombo>
1.048 

> <ROCS_ColorScore>
-1.350

> <ROCS_Overlap>
1274.761

> <ROCS_Rank>
471                 

$$$$
ligprep_h3d.sdf:1495_1772
  -OEChem-08212117123D

 70 73  0     1  0  0  0  0  0999 V2000
  -16.6954   -5.4064  -26.6323 C   0  0  0  0  0  0  0  0  0  0  0  0
  -23.1412   -4.5198  -28.7399 C   0  0  0  0  0  0  0  0  0  0  0  0
  -20.6805   -4.3256  -25.3966 C   0  0  0  0  0  0  0  0  0  0  0  0
  -16.7336   -4.0081  -26.7905 C   0  0  0  0  0  0  0  0  0  0  0  0
  -20.9359   -4.5831  -27.7869 C   0  0  0  0  0  0  0  0  0  0  0  0
  -21.2328   -4.8381  -30.1823 C   0  0  0  0  0  0  0  0  0  0  0  0
  -22.6063   -4.7104  -30.0164 C   0  0  0  0  0  0  0  0  0  0  0  0
  -20.3976   -4.7748  -29.0707 C   0  0  0  0  0  0  0  0  0  0  0  0
  -22.3294   -4.4529  -27.6108 C   0  0  0  0  0  0  0  0  0  0  0  0
  -20.1183   -4.5156  -26.6507 C   0  0  0  0  0  0  0  0  0  0  0  0
  -22.0538   -4.2090  -25.3240 C   0  0  0  0  0  0  0  0  0  0  0  0
  -18.0151   -5.7797  -26.5578 C   0  0  0  0  0  0  0  0  0  0  0  0
  -20.5025   -6.2683  -32.0644 C   0  0  0  0  0  0  0  0  0  0  0  0
  -20.6789   -5.0397  -31.5428 C   0  0  0  0  0  0  0  0  0  0  0  0
  -22.7057   -4.0085  -24.0412 C   0  0  0  0  0  0  0  0  0  0  0  0
  -19.8188   -6.6509  -36.2941 C   0  0  0  0  0  0  0  0  0  0  0  0
  -19.9531   -6.4936  -33.4477 C   0  0  0  0  0  0  0  0  0  0  0  0
  -20.3140   -3.8191  -32.3571 C   0  0  0  0  0  0  0  0  0  0  0  0
  -19.4013   -4.1441  -33.5494 C   0  0  0  0  0  0  0  0  0  0  0  0
  -23.5486   -4.7708  -31.1764 C   0  0  0  0  0  0  0  0  0  0  0  0
  -18.9243   -4.9207  -29.3288 C   0  0  0  0  0  0  0  0  0  0  0  0
  -18.6278   -7.1123  -26.3914 C   0  0  0  0  0  0  0  0  0  0  0  0
  -27.1317   -4.1914  -21.7975 C   0  0  0  0  0  0  0  0  0  0  0  0
  -19.2759   -8.9182  -37.1764 C   0  0  0  0  0  0  0  0  0  0  0  0
  -19.1851   -5.5238  -35.5192 C   0  0  0  0  0  0  0  0  0  0  0  0
  -24.7885   -4.3806  -22.6943 C   0  0  0  0  0  0  0  0  0  0  0  0
  -26.2733   -4.3380  -23.0468 C   0  0  2  0  0  0  0  0  0  0  0  0
  -17.9789   -3.5258  -26.8153 N   0  0  0  0  0  0  0  0  0  0  0  0
  -22.8779   -4.2684  -26.3951 N   0  0  0  0  0  0  0  0  0  0  0  0
  -18.7355   -4.6272  -26.6717 N   0  0  0  0  0  0  0  0  0  0  0  0
  -19.9404   -5.2881  -34.2907 N   0  0  1  0  0  0  0  0  0  0  0  0
  -24.0017   -4.5195  -23.8986 N   0  0  0  0  0  0  0  0  0  0  0  0
  -18.9332   -7.7042  -36.4711 N   0  0  0  0  0  0  0  0  0  0  0  0
  -22.1294   -3.3890  -23.1285 O   0  0  0  0  0  0  0  0  0  0  0  0
  -20.9757   -6.6214  -36.7054 O   0  0  0  0  0  0  0  0  0  0  0  0
  -26.5082   -3.2161  -23.8958 O   0  0  0  0  0  0  0  0  0  0  0  0
  -15.8307   -6.0516  -26.5803 H   0  0  0  0  0  0  0  0  0  0  0  0
  -24.2200   -4.4213  -28.6248 H   0  0  0  0  0  0  0  0  0  0  0  0
  -20.0693   -4.2697  -24.5003 H   0  0  0  0  0  0  0  0  0  0  0  0
  -15.9058   -3.3206  -26.8889 H   0  0  0  0  0  0  0  0  0  0  0  0
  -20.7420   -7.1536  -31.4805 H   0  0  0  0  0  0  0  0  0  0  0  0
  -18.9438   -6.9128  -33.3419 H   0  0  0  0  0  0  0  0  0  0  0  0
  -20.5739   -7.2528  -33.9385 H   0  0  0  0  0  0  0  0  0  0  0  0
  -21.2391   -3.3494  -32.7162 H   0  0  0  0  0  0  0  0  0  0  0  0
  -19.8032   -3.0846  -31.7222 H   0  0  0  0  0  0  0  0  0  0  0  0
  -19.3542   -3.2574  -34.1935 H   0  0  0  0  0  0  0  0  0  0  0  0
  -18.3795   -4.3466  -33.2006 H   0  0  0  0  0  0  0  0  0  0  0  0
  -23.7062   -3.7678  -31.5875 H   0  0  0  0  0  0  0  0  0  0  0  0
  -23.1566   -5.4181  -31.9693 H   0  0  0  0  0  0  0  0  0  0  0  0
  -24.5185   -5.1835  -30.8750 H   0  0  0  0  0  0  0  0  0  0  0  0
  -18.6412   -5.9749  -29.2740 H   0  0  0  0  0  0  0  0  0  0  0  0
  -18.6642   -4.5319  -30.3173 H   0  0  0  0  0  0  0  0  0  0  0  0
  -18.3447   -4.3564  -28.5926 H   0  0  0  0  0  0  0  0  0  0  0  0
  -18.7678   -7.3549  -25.3253 H   0  0  0  0  0  0  0  0  0  0  0  0
  -19.6136   -7.1787  -26.8825 H   0  0  0  0  0  0  0  0  0  0  0  0
  -18.0104   -7.9102  -26.8385 H   0  0  0  0  0  0  0  0  0  0  0  0
  -26.8611   -3.2946  -21.2318 H   0  0  0  0  0  0  0  0  0  0  0  0
  -28.1949   -4.1373  -22.0565 H   0  0  0  0  0  0  0  0  0  0  0  0
  -27.0110   -5.0630  -21.1451 H   0  0  0  0  0  0  0  0  0  0  0  0
  -19.6895   -9.6504  -36.4675 H   0  0  0  0  0  0  0  0  0  0  0  0
  -20.0248   -8.6935  -37.9501 H   0  0  0  0  0  0  0  0  0  0  0  0
  -18.3740   -9.3345  -37.6490 H   0  0  0  0  0  0  0  0  0  0  0  0
  -18.1544   -5.7865  -35.2635 H   0  0  0  0  0  0  0  0  0  0  0  0
  -19.1873   -4.6115  -36.1229 H   0  0  0  0  0  0  0  0  0  0  0  0
  -24.4838   -3.4615  -22.1823 H   0  0  0  0  0  0  0  0  0  0  0  0
  -24.5713   -5.2284  -22.0364 H   0  0  0  0  0  0  0  0  0  0  0  0
  -26.5648   -5.2423  -23.5934 H   0  0  0  0  0  0  0  0  0  0  0  0
  -24.4502   -4.9612  -24.6945 H   0  0  0  0  0  0  0  0  0  0  0  0
  -17.9972   -7.6178  -36.0856 H   0  0  0  0  0  0  0  0  0  0  0  0
  -27.4528   -3.2291  -24.1136 H   0  0  0  0  0  0  0  0  0  0  0  0
  1  4  1  0  0  0  0
  1 12  2  0  0  0  0
  2  7  1  0  0  0  0
  2  9  2  0  0  0  0
  3 10  2  0  0  0  0
  3 11  1  0  0  0  0
  4 28  2  0  0  0  0
  5  8  2  0  0  0  0
  5  9  1  0  0  0  0
  5 10  1  0  0  0  0
  6  7  2  0  0  0  0
  6  8  1  0  0  0  0
  6 14  1  0  0  0  0
  7 20  1  0  0  0  0
  8 21  1  0  0  0  0
  9 29  1  0  0  0  0
 10 30  1  0  0  0  0
 11 15  1  0  0  0  0
 11 29  2  0  0  0  0
 12 22  1  0  0  0  0
 12 30  1  0  0  0  0
 13 14  2  0  0  0  0
 13 17  1  0  0  0  0
 14 18  1  0  0  0  0
 15 32  1  0  0  0  0
 15 34  2  0  0  0  0
 16 25  1  0  0  0  0
 16 33  1  0  0  0  0
 16 35  2  0  0  0  0
 17 31  1  0  0  0  0
 18 19  1  0  0  0  0
 19 31  1  0  0  0  0
 23 27  1  0  0  0  0
 24 33  1  0  0  0  0
 25 31  1  0  0  0  0
 26 27  1  0  0  0  0
 26 32  1  0  0  0  0
 27 36  1  0  0  0  0
 28 30  1  0  0  0  0
  1 37  1  0  0  0  0
  2 38  1  0  0  0  0
  3 39  1  0  0  0  0
  4 40  1  0  0  0  0
 13 41  1  0  0  0  0
 17 42  1  0  0  0  0
 17 43  1  0  0  0  0
 18 44  1  0  0  0  0
 18 45  1  0  0  0  0
 19 46  1  0  0  0  0
 19 47  1  0  0  0  0
 20 48  1  0  0  0  0
 20 49  1  0  0  0  0
 20 50  1  0  0  0  0
 21 51  1  0  0  0  0
 21 52  1  0  0  0  0
 21 53  1  0  0  0  0
 22 54  1  0  0  0  0
 22 55  1  0  0  0  0
 22 56  1  0  0  0  0
 23 57  1  0  0  0  0
 23 58  1  0  0  0  0
 23 59  1  0  0  0  0
 24 60  1  0  0  0  0
 24 61  1  0  0  0  0
 24 62  1  0  0  0  0
 25 63  1  0  0  0  0
 25 64  1  0  0  0  0
 26 65  1  0  0  0  0
 26 66  1  0  0  0  0
 27 67  1  0  0  0  0
 32 68  1  0  0  0  0
 33 69  1  0  0  0  0
 36 70  1  0  0  0  0
M  END
> <SMILES>
CNC(=O)CN1CCC(=CC1)c1c(cc2nc(cc(c2c1C)-n1nccc1C)C(=O)NC[C@@H](C)O)C

> <FORMATTED_ID>
H3D-012895

> <MOLFORMULA>
C27H34N6O3

> <Exact Mass>
490.27

> <XLogP>
1.93

> <TPSA_NOPS>
112.4

> <s_m_source_file>
ligprep_h3d.sdf

> <i_m_source_file_index>
1495

> <i_lp_mmshare_version>
55123

> <i_f3d_flags>
0

> <s_epik_input>
W0NIM11bTkhdQyg9TylbQ0gyXU4xW0NIMl1bQ0gyXUMoPVtDSF1bQ0gyXTEpYyhjKFtjSF0yKVtDSDNdKWMoW0NIM10pYyhjMjMpYygtbjRuW2NIXVtjSF1jNFtDSDNdKVtjSF1jKG4zKUMoPU8pW05IXVtDSDJdW0NAQEhdKFtDSDNdKVtPSF0=

> <s_epik_cmdline>
J2VwaWtfcHl0aG9uJywgJy1waHQnLCAnMC41JywgJy1waCcsICc3LjUnLCAnLXRuJywgJzgnLCAnLW1hJywgJzUwMCcsICctaW1hZScsICc8aW5maWxlLm1hZT4nLCAnLW9tYWUnLCAnPG91dGZpbGUubWFlPic=

> <r_lp_tautomer_probability>
1

> <r_epik_Ionization_Penalty>
0.187176

> <r_epik_Ionization_Penalty_Charging>
0

> <r_epik_Ionization_Penalty_Neutral>
0.187176

> <r_epik_State_Penalty>
0.17675

> <r_epik_Charging_Adjusted_Penalty>
0.17675

> <i_epik_Tot_Q>
0

> <i_epik_Tot_abs_Q>
0

> <s_lp_Force_Field>
S-OPLS

> <r_lp_Energy>
54.1285

> <b_lp_Chiralities_Consistent>
1

> <s_lp_Variant>
ligprep_h3d.sdf:1495-1

> <ROCS_ShapeQuery>
_7L13

> <ROCS_TanimotoCombo>
0.736 

> <ROCS_ShapeTanimoto>
0.635 

> <ROCS_ColorTanimoto>
0.102 

> <ROCS_RefTversky>
0.773 

> <ROCS_RefColorTversky>
0.221 

> <ROCS_RefTverskyCombo>
0.994 

> <ROCS_FitTversky>
0.780 

> <ROCS_FitColorTversky>
0.159 

> <ROCS_FitTverskyCombo>
0.939 

> <ROCS_ColorScore>
-2.031

> <ROCS_Overlap>
1282.646

> <ROCS_Rank>
472                 

$$$$
ligprep_h3d.sdf:1237_39
  -OEChem-08212117123D

 57 63  0     1  0  0  0  0  0999 V2000
  -20.9198   -5.1045  -29.5109 C   0  0  0  0  0  0  0  0  0  0  0  0
  -21.7132   -4.3661  -30.3914 C   0  0  0  0  0  0  0  0  0  0  0  0
  -21.0467   -4.8698  -28.1206 C   0  0  0  0  0  0  0  0  0  0  0  0
  -21.9747   -3.9445  -27.5868 C   0  0  0  0  0  0  0  0  0  0  0  0
  -22.5909   -3.4427  -29.8671 C   0  0  0  0  0  0  0  0  0  0  0  0
  -22.7524   -3.1981  -28.5032 C   0  0  0  0  0  0  0  0  0  0  0  0
  -21.9065   -4.2608  -31.7814 C   0  0  0  0  0  0  0  0  0  0  0  0
  -18.9017   -3.7022  -26.2362 C   0  0  0  0  0  0  0  0  0  0  0  0
  -19.1486   -5.9269  -25.0150 C   0  0  0  0  0  0  0  0  0  0  0  0
  -17.0038   -4.9715  -25.8268 C   0  0  0  0  0  0  0  0  0  0  0  0
  -20.0287   -4.6101  -33.3227 C   0  0  0  0  0  0  0  0  0  0  0  0
  -20.1662   -5.6674  -27.1963 C   0  0  0  0  0  0  0  0  0  0  0  0
  -20.9129   -7.3428  -35.4985 C   0  0  0  0  0  0  0  0  0  0  0  0
  -20.1493   -8.0435  -34.4093 C   0  0  0  0  0  0  0  0  0  0  0  0
  -23.0949   -2.8551  -25.6526 C   0  0  0  0  0  0  0  0  0  0  0  0
  -21.6880   -6.2836  -33.2359 C   0  0  0  0  0  0  0  0  0  0  0  0
  -21.1774   -4.4429  -25.2415 C   0  0  2  0  0  0  0  0  0  0  0  0
  -23.4549   -3.1919  -24.2026 C   0  0  1  0  0  0  0  0  0  0  0  0
  -21.0631   -3.5044  -24.0044 C   0  0  2  0  0  0  0  0  0  0  0  0
  -19.8307   -4.8918  -25.8984 C   0  0  2  0  0  0  0  0  0  0  0  0
  -20.6236   -6.6338  -34.2076 C   0  0  0  0  0  0  0  0  0  0  0  0
  -24.3885   -4.3960  -24.0936 C   0  0  0  0  0  0  0  0  0  0  0  0
  -20.0867   -3.9351  -22.9171 C   0  0  0  0  0  0  0  0  0  0  0  0
  -22.8272   -3.3451  -32.0972 N   0  0  0  0  0  0  0  0  0  0  0  0
  -17.6253   -3.9962  -26.4909 N   0  5  0  0  0  0  0  0  0  0  0  0
  -17.7708   -5.8541  -25.0684 N   0  0  0  0  0  0  0  0  0  0  0  0
  -22.0946   -3.7770  -26.2051 N   0  0  3  0  0  0  0  0  0  0  0  0
  -21.2325   -5.0028  -32.7313 N   0  0  0  0  0  0  0  0  0  0  0  0
  -19.3591   -2.5677  -26.3721 O   0  0  0  0  0  0  0  0  0  0  0  0
  -19.7489   -6.7907  -24.3795 O   0  0  0  0  0  0  0  0  0  0  0  0
  -15.7818   -5.1378  -25.8698 O   0  0  0  0  0  0  0  0  0  0  0  0
  -19.3831   -3.5908  -33.1199 O   0  0  0  0  0  0  0  0  0  0  0  0
  -23.2577   -2.8268  -30.8814 O   0  0  0  0  0  0  0  0  0  0  0  0
  -19.6492   -5.5836  -34.2148 O   0  0  0  0  0  0  0  0  0  0  0  0
  -22.3349   -3.4090  -23.3493 O   0  0  0  0  0  0  0  0  0  0  0  0
  -23.5621   -2.1977  -28.1361 F   0  0  0  0  0  0  0  0  0  0  0  0
  -20.2119   -5.8376  -29.8867 H   0  0  0  0  0  0  0  0  0  0  0  0
  -20.6900   -6.6051  -26.9655 H   0  0  0  0  0  0  0  0  0  0  0  0
  -19.2415   -5.9487  -27.7173 H   0  0  0  0  0  0  0  0  0  0  0  0
  -20.3655   -7.0397  -36.3825 H   0  0  0  0  0  0  0  0  0  0  0  0
  -21.9263   -7.6733  -35.6909 H   0  0  0  0  0  0  0  0  0  0  0  0
  -20.6544   -8.8403  -33.8772 H   0  0  0  0  0  0  0  0  0  0  0  0
  -19.0899   -8.2085  -34.5624 H   0  0  0  0  0  0  0  0  0  0  0  0
  -24.0018   -2.9341  -26.2869 H   0  0  0  0  0  0  0  0  0  0  0  0
  -22.8274   -1.7875  -25.6890 H   0  0  0  0  0  0  0  0  0  0  0  0
  -22.6669   -6.1539  -33.7077 H   0  0  0  0  0  0  0  0  0  0  0  0
  -21.7532   -6.9925  -32.4046 H   0  0  0  0  0  0  0  0  0  0  0  0
  -21.7154   -5.3469  -24.9132 H   0  0  0  0  0  0  0  0  0  0  0  0
  -24.0419   -2.3118  -23.7644 H   0  0  0  0  0  0  0  0  0  0  0  0
  -20.7749   -2.4823  -24.3098 H   0  0  0  0  0  0  0  0  0  0  0  0
  -23.8996   -5.2844  -24.4936 H   0  0  0  0  0  0  0  0  0  0  0  0
  -25.3027   -4.2113  -24.6578 H   0  0  0  0  0  0  0  0  0  0  0  0
  -24.6470   -4.5743  -23.0497 H   0  0  0  0  0  0  0  0  0  0  0  0
  -20.3271   -4.9428  -22.5777 H   0  0  0  0  0  0  0  0  0  0  0  0
  -20.1478   -3.2526  -22.0693 H   0  0  0  0  0  0  0  0  0  0  0  0
  -19.0682   -3.9263  -23.3056 H   0  0  0  0  0  0  0  0  0  0  0  0
  -17.2603   -6.5164  -24.4919 H   0  0  0  0  0  0  0  0  0  0  0  0
  1  2  2  0  0  0  0
  1  3  1  0  0  0  0
  2  5  1  0  0  0  0
  2  7  1  0  0  0  0
  3  4  2  0  0  0  0
  3 12  1  0  0  0  0
  4  6  1  0  0  0  0
  4 27  1  0  0  0  0
  5  6  2  0  0  0  0
  5 33  1  0  0  0  0
  6 36  1  0  0  0  0
  7 24  2  0  0  0  0
  7 28  1  0  0  0  0
  8 20  1  0  0  0  0
  8 25  1  0  0  0  0
  8 29  2  0  0  0  0
  9 20  1  0  0  0  0
  9 26  1  0  0  0  0
  9 30  2  0  0  0  0
 10 25  1  0  0  0  0
 10 26  1  0  0  0  0
 10 31  2  0  0  0  0
 11 28  1  0  0  0  0
 11 32  2  0  0  0  0
 11 34  1  0  0  0  0
 12 20  1  0  0  0  0
 13 14  1  0  0  0  0
 13 21  1  0  0  0  0
 14 21  1  0  0  0  0
 15 18  1  0  0  0  0
 15 27  1  0  0  0  0
 16 21  1  0  0  0  0
 16 28  1  0  0  0  0
 17 19  1  0  0  0  0
 17 20  1  0  0  0  0
 17 27  1  0  0  0  0
 18 22  1  0  0  0  0
 18 35  1  0  0  0  0
 19 23  1  0  0  0  0
 19 35  1  0  0  0  0
 21 34  1  0  0  0  0
 24 33  1  0  0  0  0
  1 37  1  0  0  0  0
 12 38  1  0  0  0  0
 12 39  1  0  0  0  0
 13 40  1  0  0  0  0
 13 41  1  0  0  0  0
 14 42  1  0  0  0  0
 14 43  1  0  0  0  0
 15 44  1  0  0  0  0
 15 45  1  0  0  0  0
 16 46  1  0  0  0  0
 16 47  1  0  0  0  0
 17 48  1  0  0  0  0
 18 49  1  0  0  0  0
 19 50  1  0  0  0  0
 22 51  1  0  0  0  0
 22 52  1  0  0  0  0
 22 53  1  0  0  0  0
 23 54  1  0  0  0  0
 23 55  1  0  0  0  0
 23 56  1  0  0  0  0
 26 57  1  0  0  0  0
M  CHG  1  25  -1
M  END
> <SMILES>
C[C@@H]1CN2[C@H]([C@H](C)O1)C1(Cc3cc4c(noc4c(c32)F)N2CC3(CC3)OC2=O)C(=O)NC(=O)NC1=O

> <FORMATTED_ID>
H3D-008462

> <MOLFORMULA>
C23H22FN5O7

> <Exact Mass>
499.15

> <XLogP>
0.78

> <TPSA_NOPS>
143.6

> <s_m_source_file>
ligprep_h3d.sdf

> <i_m_source_file_index>
1237

> <i_lp_mmshare_version>
55123

> <i_f3d_flags>
0

> <s_epik_input>
Tz1DMVtOSF1DKD1PKVtOSF1DKD1PKUMxMltDQEBIXTNOKFtDSDJdW0NAQEhdKFtDSDNdKU9bQ0BIXTNbQ0gzXSljNGMoW0NIMl0yKVtjSF1jNWMoYzRGKW9uYzVOKEMoTzYpPU8pW0NIMl1DNjdbQ0gyXVtDSDJdNw==

> <s_epik_cmdline>
J2VwaWtfcHl0aG9uJywgJy1waHQnLCAnMC41JywgJy1waCcsICc3LjUnLCAnLXRuJywgJzgnLCAnLW1hJywgJzUwMCcsICctaW1hZScsICc8aW5maWxlLm1hZT4nLCAnLW9tYWUnLCAnPG91dGZpbGUubWFlPic=

> <r_lp_tautomer_probability>
1

> <r_epik_Ionization_Penalty>
0.455388

> <r_epik_Ionization_Penalty_Charging>
0.455373

> <r_epik_Ionization_Penalty_Neutral>
1.46168e-05

> <r_epik_State_Penalty>
0.458483

> <r_epik_Charging_Adjusted_Penalty>
0.913857

> <i_epik_Tot_Q>
-1

> <i_epik_Tot_abs_Q>
1

> <s_epik_Chemistry_Notes>
This compound has an ester and may undergo hydrolysis at high or low pH.

> <s_lp_Force_Field>
S-OPLS

> <r_lp_Energy>
51.0398

> <b_lp_Chiralities_Consistent>
1

> <s_lp_Variant>
ligprep_h3d.sdf:1237-2

> <ROCS_ShapeQuery>
_7L13

> <ROCS_TanimotoCombo>
0.740 

> <ROCS_ShapeTanimoto>
0.610 

> <ROCS_ColorTanimoto>
0.130 

> <ROCS_RefTversky>
0.773 

> <ROCS_RefColorTversky>
0.297 

> <ROCS_RefTverskyCombo>
1.070 

> <ROCS_FitTversky>
0.743 

> <ROCS_FitColorTversky>
0.187 

> <ROCS_FitTverskyCombo>
0.930 

> <ROCS_ColorScore>
-2.761

> <ROCS_Overlap>
1286.137

> <ROCS_Rank>
473                 

$$$$
ligprep_h3d.sdf:5083_1199
  -OEChem-08212117123D

 66 71  0     0  0  0  0  0  0999 V2000
  -19.3784   -6.1044  -34.7455 C   0  0  0  0  0  0  0  0  0  0  0  0
  -20.3657   -7.0024  -34.3401 C   0  0  0  0  0  0  0  0  0  0  0  0
  -19.2806   -4.8534  -34.1362 C   0  0  0  0  0  0  0  0  0  0  0  0
  -21.2553   -6.6494  -33.3254 C   0  0  0  0  0  0  0  0  0  0  0  0
  -20.1702   -4.5004  -33.1215 C   0  0  0  0  0  0  0  0  0  0  0  0
  -23.5777   -3.9497  -27.7289 C   0  0  0  0  0  0  0  0  0  0  0  0
  -20.8977   -4.4714  -28.4445 C   0  0  0  0  0  0  0  0  0  0  0  0
  -15.2087   -6.1363  -25.8839 C   0  0  0  0  0  0  0  0  0  0  0  0
  -14.6560   -4.8896  -25.7494 C   0  0  0  0  0  0  0  0  0  0  0  0
  -22.6322   -4.2552  -26.7577 C   0  0  0  0  0  0  0  0  0  0  0  0
  -21.1576   -5.3984  -32.7161 C   0  0  0  0  0  0  0  0  0  0  0  0
  -21.3085   -4.5120  -27.1200 C   0  0  0  0  0  0  0  0  0  0  0  0
  -23.1784   -3.9053  -29.0662 C   0  0  0  0  0  0  0  0  0  0  0  0
  -21.8473   -4.1644  -29.4210 C   0  0  0  0  0  0  0  0  0  0  0  0
  -16.8519   -4.6484  -25.8171 C   0  0  0  0  0  0  0  0  0  0  0  0
  -18.2564   -4.1579  -25.8309 C   0  0  0  0  0  0  0  0  0  0  0  0
  -18.8344   -6.5048  -26.0661 C   0  0  0  0  0  0  0  0  0  0  0  0
  -17.5541   -6.9219  -26.0505 C   0  0  0  0  0  0  0  0  0  0  0  0
  -19.2273   -5.0889  -25.9551 C   0  0  0  0  0  0  0  0  0  0  0  0
  -23.8361   -5.4750  -24.9068 C   0  0  0  0  0  0  0  0  0  0  0  0
  -23.2980   -3.0186  -24.6619 C   0  0  0  0  0  0  0  0  0  0  0  0
  -21.3919   -4.7230  -24.7888 C   0  0  0  0  0  0  0  0  0  0  0  0
  -24.1306   -5.5501  -23.4129 C   0  0  0  0  0  0  0  0  0  0  0  0
  -23.5961   -3.1114  -23.1698 C   0  0  0  0  0  0  0  0  0  0  0  0
  -22.8324   -4.3604  -25.2590 C   0  0  0  0  0  0  0  0  0  0  0  0
  -25.0327   -4.2546  -21.4845 C   0  0  0  0  0  0  0  0  0  0  0  0
  -24.2629   -2.2284  -30.3575 C   0  0  0  0  0  0  0  0  0  0  0  0
  -22.1144   -5.0179  -31.6247 C   0  0  0  0  0  0  0  0  0  0  0  0
  -16.5761   -5.9616  -25.9238 N   0  0  0  0  0  0  0  0  0  0  0  0
  -15.6952   -3.9893  -25.7105 N   0  3  0  0  0  0  0  0  0  0  0  0
  -20.5436   -4.7943  -25.9834 N   0  0  0  0  0  0  0  0  0  0  0  0
  -24.6080   -4.2039  -22.9266 N   0  3  0  0  0  0  0  0  0  0  0  0
  -24.0992   -3.6053  -30.0258 O   0  0  0  0  0  0  0  0  0  0  0  0
  -21.4652   -4.1184  -30.7294 O   0  0  0  0  0  0  0  0  0  0  0  0
  -18.6849   -6.3799  -35.5347 H   0  0  0  0  0  0  0  0  0  0  0  0
  -20.4413   -7.9769  -34.8136 H   0  0  0  0  0  0  0  0  0  0  0  0
  -18.5113   -4.1545  -34.4509 H   0  0  0  0  0  0  0  0  0  0  0  0
  -22.0216   -7.3554  -33.0161 H   0  0  0  0  0  0  0  0  0  0  0  0
  -20.0866   -3.5236  -32.6526 H   0  0  0  0  0  0  0  0  0  0  0  0
  -24.6092   -3.7485  -27.4564 H   0  0  0  0  0  0  0  0  0  0  0  0
  -19.8709   -4.6691  -28.7326 H   0  0  0  0  0  0  0  0  0  0  0  0
  -14.8137   -7.1319  -25.9574 H   0  0  0  0  0  0  0  0  0  0  0  0
  -13.6605   -4.4994  -25.6740 H   0  0  0  0  0  0  0  0  0  0  0  0
  -18.4550   -3.0969  -25.7437 H   0  0  0  0  0  0  0  0  0  0  0  0
  -19.6282   -7.2399  -26.1651 H   0  0  0  0  0  0  0  0  0  0  0  0
  -17.2551   -7.9588  -26.1315 H   0  0  0  0  0  0  0  0  0  0  0  0
  -23.4656   -6.4496  -25.2508 H   0  0  0  0  0  0  0  0  0  0  0  0
  -24.7829   -5.3112  -25.4388 H   0  0  0  0  0  0  0  0  0  0  0  0
  -24.2049   -2.6720  -25.1757 H   0  0  0  0  0  0  0  0  0  0  0  0
  -22.5434   -2.2394  -24.8313 H   0  0  0  0  0  0  0  0  0  0  0  0
  -20.9866   -3.9703  -24.1015 H   0  0  0  0  0  0  0  0  0  0  0  0
  -21.3647   -5.6874  -24.2672 H   0  0  0  0  0  0  0  0  0  0  0  0
  -24.9315   -6.2712  -23.2183 H   0  0  0  0  0  0  0  0  0  0  0  0
  -23.2482   -5.8234  -22.8252 H   0  0  0  0  0  0  0  0  0  0  0  0
  -22.7047   -3.3447  -22.5783 H   0  0  0  0  0  0  0  0  0  0  0  0
  -24.0336   -2.1743  -22.8097 H   0  0  0  0  0  0  0  0  0  0  0  0
  -24.1550   -4.5067  -20.8866 H   0  0  0  0  0  0  0  0  0  0  0  0
  -25.4214   -3.2705  -21.2159 H   0  0  0  0  0  0  0  0  0  0  0  0
  -25.8047   -5.0207  -21.3904 H   0  0  0  0  0  0  0  0  0  0  0  0
  -25.0253   -2.1280  -31.1340 H   0  0  0  0  0  0  0  0  0  0  0  0
  -23.3119   -1.8223  -30.7111 H   0  0  0  0  0  0  0  0  0  0  0  0
  -24.5806   -1.6831  -29.4656 H   0  0  0  0  0  0  0  0  0  0  0  0
  -23.0051   -4.5312  -32.0365 H   0  0  0  0  0  0  0  0  0  0  0  0
  -22.4414   -5.9037  -31.0695 H   0  0  0  0  0  0  0  0  0  0  0  0
  -15.5981   -2.9821  -25.6161 H   0  0  0  0  0  0  0  0  0  0  0  0
  -25.4503   -3.9653  -23.4681 H   0  0  0  0  0  0  0  0  0  0  0  0
  1  2  2  0  0  0  0
  1  3  1  0  0  0  0
  2  4  1  0  0  0  0
  3  5  2  0  0  0  0
  4 11  2  0  0  0  0
  5 11  1  0  0  0  0
  6 10  1  0  0  0  0
  6 13  2  0  0  0  0
  7 12  1  0  0  0  0
  7 14  2  0  0  0  0
  8  9  2  0  0  0  0
  8 29  1  0  0  0  0
  9 30  1  0  0  0  0
 10 12  2  0  0  0  0
 10 25  1  0  0  0  0
 11 28  1  0  0  0  0
 12 31  1  0  0  0  0
 13 14  1  0  0  0  0
 13 33  1  0  0  0  0
 14 34  1  0  0  0  0
 15 16  1  0  0  0  0
 15 29  1  0  0  0  0
 15 30  2  0  0  0  0
 16 19  2  0  0  0  0
 17 18  2  0  0  0  0
 17 19  1  0  0  0  0
 18 29  1  0  0  0  0
 19 31  1  0  0  0  0
 20 23  1  0  0  0  0
 20 25  1  0  0  0  0
 21 24  1  0  0  0  0
 21 25  1  0  0  0  0
 22 25  1  0  0  0  0
 22 31  1  0  0  0  0
 23 32  1  0  0  0  0
 24 32  1  0  0  0  0
 26 32  1  0  0  0  0
 27 33  1  0  0  0  0
 28 34  1  0  0  0  0
  1 35  1  0  0  0  0
  2 36  1  0  0  0  0
  3 37  1  0  0  0  0
  4 38  1  0  0  0  0
  5 39  1  0  0  0  0
  6 40  1  0  0  0  0
  7 41  1  0  0  0  0
  8 42  1  0  0  0  0
  9 43  1  0  0  0  0
 16 44  1  0  0  0  0
 17 45  1  0  0  0  0
 18 46  1  0  0  0  0
 20 47  1  0  0  0  0
 20 48  1  0  0  0  0
 21 49  1  0  0  0  0
 21 50  1  0  0  0  0
 22 51  1  0  0  0  0
 22 52  1  0  0  0  0
 23 53  1  0  0  0  0
 23 54  1  0  0  0  0
 24 55  1  0  0  0  0
 24 56  1  0  0  0  0
 26 57  1  0  0  0  0
 26 58  1  0  0  0  0
 26 59  1  0  0  0  0
 27 60  1  0  0  0  0
 27 61  1  0  0  0  0
 27 62  1  0  0  0  0
 28 63  1  0  0  0  0
 28 64  1  0  0  0  0
 30 65  1  0  0  0  0
 32 66  1  0  0  0  0
M  CHG  2  30   1  32   1
M  END
> <SMILES>
COc1cc2c(cc1OCc1ccccc1)N(CC12CCN(C)CC1)c1ccn2ccnc2c1

> <FORMATTED_ID>
H3D-012478

> <MOLFORMULA>
C28H30N4O2

> <Exact Mass>
454.24

> <XLogP>
6.07

> <TPSA_NOPS>
42.2

> <s_m_source_file>
ligprep_h3d.sdf

> <i_m_source_file_index>
5083

> <i_lp_mmshare_version>
55123

> <i_f3d_flags>
0

> <s_epik_input>
W2NIXTFbY0hdW2NIXVtjSF1bY0hdYzFbQ0gyXU9jKGMoW2NIXTIpT1tDSDNdKVtjSF1jKGMyQzM0W0NIMl1bQ0gyXU4oW0NIM10pW0NIMl1bQ0gyXTQpTihbQ0gyXTMpYyhbY0hdW2NIXTUpW2NIXWMobjU2KW5bY0hdW2NIXTY=

> <s_epik_cmdline>
J2VwaWtfcHl0aG9uJywgJy1waHQnLCAnMC41JywgJy1waCcsICc3LjUnLCAnLXRuJywgJzgnLCAnLW1hJywgJzUwMCcsICctaW1hZScsICc8aW5maWxlLm1hZT4nLCAnLW9tYWUnLCAnPG91dGZpbGUubWFlPic=

> <r_lp_tautomer_probability>
1

> <r_epik_Ionization_Penalty>
0.405137

> <r_epik_Ionization_Penalty_Charging>
0.00813204

> <r_epik_Ionization_Penalty_Neutral>
0.397005

> <r_epik_State_Penalty>
0.396099

> <r_epik_Charging_Adjusted_Penalty>
0.404231

> <i_epik_Tot_Q>
2

> <i_epik_Tot_abs_Q>
2

> <s_lp_Force_Field>
S-OPLS

> <r_lp_Energy>
77.4466

> <b_lp_Chiralities_Consistent>
1

> <s_lp_Variant>
ligprep_h3d.sdf:5083-1

> <ROCS_ShapeQuery>
_7L13

> <ROCS_TanimotoCombo>
0.747 

> <ROCS_ShapeTanimoto>
0.651 

> <ROCS_ColorTanimoto>
0.096 

> <ROCS_RefTversky>
0.773 

> <ROCS_RefColorTversky>
0.201 

> <ROCS_RefTverskyCombo>
0.973 

> <ROCS_FitTversky>
0.805 

> <ROCS_FitColorTversky>
0.155 

> <ROCS_FitTverskyCombo>
0.960 

> <ROCS_ColorScore>
-1.837

> <ROCS_Overlap>
1280.367

> <ROCS_Rank>
474                 

$$$$
ligprep_h3d.sdf:1874_877
  -OEChem-08212117123D

 51 56  0     0  0  0  0  0  0999 V2000
  -19.5987   -6.2053  -34.9126 C   0  0  0  0  0  0  0  0  0  0  0  0
  -27.9518   -4.8952  -23.4136 C   0  0  0  0  0  0  0  0  0  0  0  0
  -20.5775   -6.9541  -34.2594 C   0  0  0  0  0  0  0  0  0  0  0  0
  -19.5358   -4.8245  -34.7249 C   0  0  0  0  0  0  0  0  0  0  0  0
  -27.4424   -4.4244  -22.2007 C   0  0  0  0  0  0  0  0  0  0  0  0
  -27.1166   -5.0877  -24.5226 C   0  0  0  0  0  0  0  0  0  0  0  0
  -21.4936   -6.3222  -33.4185 C   0  0  0  0  0  0  0  0  0  0  0  0
  -20.4520   -4.1926  -33.8841 C   0  0  0  0  0  0  0  0  0  0  0  0
  -26.0841   -4.1293  -22.0504 C   0  0  0  0  0  0  0  0  0  0  0  0
  -24.6118   -4.8550  -25.2447 C   0  0  0  0  0  0  0  0  0  0  0  0
  -19.2630   -4.8094  -26.2100 C   0  0  0  0  0  0  0  0  0  0  0  0
  -24.1222   -3.3189  -31.8192 C   0  0  0  0  0  0  0  0  0  0  0  0
  -25.7470   -4.7975  -24.3938 C   0  0  0  0  0  0  0  0  0  0  0  0
  -23.3499   -3.4424  -30.6565 C   0  0  0  0  0  0  0  0  0  0  0  0
  -21.4309   -4.9414  -33.2309 C   0  0  0  0  0  0  0  0  0  0  0  0
  -25.2788   -4.3307  -23.1698 C   0  0  0  0  0  0  0  0  0  0  0  0
  -23.5421   -4.4259  -24.4936 C   0  0  0  0  0  0  0  0  0  0  0  0
  -18.3834   -4.6793  -27.3014 C   0  0  0  0  0  0  0  0  0  0  0  0
  -22.2047   -4.0885  -31.0543 C   0  0  0  0  0  0  0  0  0  0  0  0
  -20.5105   -4.6097  -26.7487 C   0  0  0  0  0  0  0  0  0  0  0  0
  -23.4971   -3.0665  -29.2761 C   0  0  0  0  0  0  0  0  0  0  0  0
  -21.2551   -4.1247  -29.0513 C   0  0  0  0  0  0  0  0  0  0  0  0
  -22.1646   -4.2751  -24.8174 C   0  0  0  0  0  0  0  0  0  0  0  0
  -16.9156   -4.7989  -27.2887 C   0  0  0  0  0  0  0  0  0  0  0  0
  -23.5133   -3.8494  -32.8873 N   0  0  0  0  0  0  0  0  0  0  0  0
  -19.0183   -4.4174  -28.4470 N   0  0  0  0  0  0  0  0  0  0  0  0
  -21.1334   -4.4511  -30.3125 N   0  0  0  0  0  0  0  0  0  0  0  0
  -22.3470   -4.3104  -32.3900 N   0  0  0  0  0  0  0  0  0  0  0  0
  -20.3102   -4.3813  -28.0784 N   0  0  0  0  0  0  0  0  0  0  0  0
  -22.3795   -3.4518  -28.5224 N   0  0  0  0  0  0  0  0  0  0  0  0
  -21.7911   -4.6185  -26.1405 N   0  0  0  0  0  0  0  0  0  0  0  0
  -24.4793   -2.4854  -28.8309 O   0  0  0  0  0  0  0  0  0  0  0  0
  -21.3055   -3.8944  -23.9846 O   0  0  0  0  0  0  0  0  0  0  0  0
  -23.9362   -4.1053  -23.2336 O   0  0  0  0  0  0  0  0  0  0  0  0
  -18.8840   -6.6971  -35.5659 H   0  0  0  0  0  0  0  0  0  0  0  0
  -29.0126   -5.1165  -23.4997 H   0  0  0  0  0  0  0  0  0  0  0  0
  -20.6258   -8.0294  -34.4043 H   0  0  0  0  0  0  0  0  0  0  0  0
  -18.7724   -4.2423  -35.2328 H   0  0  0  0  0  0  0  0  0  0  0  0
  -28.1142   -4.2847  -21.3574 H   0  0  0  0  0  0  0  0  0  0  0  0
  -27.5267   -5.4546  -25.4586 H   0  0  0  0  0  0  0  0  0  0  0  0
  -22.2511   -6.9177  -32.9148 H   0  0  0  0  0  0  0  0  0  0  0  0
  -20.3912   -3.1158  -33.7461 H   0  0  0  0  0  0  0  0  0  0  0  0
  -25.6824   -3.7647  -21.1126 H   0  0  0  0  0  0  0  0  0  0  0  0
  -24.5825   -5.1704  -26.2784 H   0  0  0  0  0  0  0  0  0  0  0  0
  -19.0253   -5.0181  -25.1763 H   0  0  0  0  0  0  0  0  0  0  0  0
  -25.0967   -2.8694  -31.9440 H   0  0  0  0  0  0  0  0  0  0  0  0
  -16.5969   -5.8397  -27.4704 H   0  0  0  0  0  0  0  0  0  0  0  0
  -16.4388   -4.1662  -28.0585 H   0  0  0  0  0  0  0  0  0  0  0  0
  -16.4796   -4.4812  -26.3246 H   0  0  0  0  0  0  0  0  0  0  0  0
  -22.3780   -3.2326  -27.5294 H   0  0  0  0  0  0  0  0  0  0  0  0
  -22.5548   -4.9153  -26.7430 H   0  0  0  0  0  0  0  0  0  0  0  0
  1  3  2  0  0  0  0
  1  4  1  0  0  0  0
  2  5  2  0  0  0  0
  2  6  1  0  0  0  0
  3  7  1  0  0  0  0
  4  8  2  0  0  0  0
  5  9  1  0  0  0  0
  6 13  2  0  0  0  0
  7 15  2  0  0  0  0
  8 15  1  0  0  0  0
  9 16  2  0  0  0  0
 10 13  1  0  0  0  0
 10 17  2  0  0  0  0
 11 18  1  0  0  0  0
 11 20  2  0  0  0  0
 12 14  1  0  0  0  0
 12 25  2  0  0  0  0
 13 16  1  0  0  0  0
 14 19  2  0  0  0  0
 14 21  1  0  0  0  0
 15 28  1  0  0  0  0
 16 34  1  0  0  0  0
 17 23  1  0  0  0  0
 17 34  1  0  0  0  0
 18 24  1  0  0  0  0
 18 26  2  0  0  0  0
 19 27  1  0  0  0  0
 19 28  1  0  0  0  0
 20 29  1  0  0  0  0
 20 31  1  0  0  0  0
 21 30  1  0  0  0  0
 21 32  2  0  0  0  0
 22 27  2  0  0  0  0
 22 29  1  0  0  0  0
 22 30  1  0  0  0  0
 23 31  1  0  0  0  0
 23 33  2  0  0  0  0
 25 28  1  0  0  0  0
 26 29  1  0  0  0  0
  1 35  1  0  0  0  0
  2 36  1  0  0  0  0
  3 37  1  0  0  0  0
  4 38  1  0  0  0  0
  5 39  1  0  0  0  0
  6 40  1  0  0  0  0
  7 41  1  0  0  0  0
  8 42  1  0  0  0  0
  9 43  1  0  0  0  0
 10 44  1  0  0  0  0
 11 45  1  0  0  0  0
 12 46  1  0  0  0  0
 24 47  1  0  0  0  0
 24 48  1  0  0  0  0
 24 49  1  0  0  0  0
 30 50  1  0  0  0  0
 31 51  1  0  0  0  0
M  END
> <SMILES>
Cc1cc(n(n1)C1=Nc2c(cnn2-c2ccccc2)C(=O)N1)NC(=O)c1cc2ccccc2o1

> <FORMATTED_ID>
H3D-000979

> <MOLFORMULA>
C24H17N7O3

> <Exact Mass>
451.14

> <XLogP>
4.39

> <TPSA_NOPS>
119.6

> <s_m_source_file>
ligprep_h3d.sdf

> <i_m_source_file_index>
1874

> <i_lp_mmshare_version>
55123

> <i_f3d_flags>
0

> <s_epik_input>
W2NIXTFbY0hdW2NIXVtjSF1jKGMxMilvYyhbY0hdMilDKD1PKVtOSF1jKFtjSF1jM1tDSDNdKW4objMpLWMobjQpW25IXWMoPU8pYyhjNDUpW2NIXW5uNS1jNltjSF1bY0hdW2NIXVtjSF1bY0hdNg==

> <s_epik_cmdline>
J2VwaWtfcHl0aG9uJywgJy1waHQnLCAnMC41JywgJy1waCcsICc3LjUnLCAnLXRuJywgJzgnLCAnLW1hJywgJzUwMCcsICctaW1hZScsICc8aW5maWxlLm1hZT4nLCAnLW9tYWUnLCAnPG91dGZpbGUubWFlPic=

> <r_lp_tautomer_probability>
1

> <r_epik_Ionization_Penalty>
0.112239

> <r_epik_Ionization_Penalty_Charging>
0.112063

> <r_epik_Ionization_Penalty_Neutral>
0.000175883

> <r_epik_State_Penalty>
0.101773

> <r_epik_Charging_Adjusted_Penalty>
0.213836

> <i_epik_Tot_Q>
0

> <i_epik_Tot_abs_Q>
0

> <s_lp_Force_Field>
S-OPLS

> <r_lp_Energy>
48.2922

> <b_lp_Chiralities_Consistent>
1

> <s_lp_Variant>
ligprep_h3d.sdf:1874-1

> <ROCS_ShapeQuery>
_7L13

> <ROCS_TanimotoCombo>
0.757 

> <ROCS_ShapeTanimoto>
0.632 

> <ROCS_ColorTanimoto>
0.125 

> <ROCS_RefTversky>
0.773 

> <ROCS_RefColorTversky>
0.277 

> <ROCS_RefTverskyCombo>
1.050 

> <ROCS_FitTversky>
0.776 

> <ROCS_FitColorTversky>
0.186 

> <ROCS_FitTverskyCombo>
0.962 

> <ROCS_ColorScore>
-2.564

> <ROCS_Overlap>
1282.858

> <ROCS_Rank>
475                 

$$$$
ligprep_h3d.sdf:1204_229
  -OEChem-08212117123D

 57 62  0     1  0  0  0  0  0999 V2000
  -22.0445   -6.8491  -33.1547 C   0  0  0  0  0  0  0  0  0  0  0  0
  -20.7344   -4.8978  -29.5281 C   0  0  0  0  0  0  0  0  0  0  0  0
  -21.7608   -7.9350  -33.9464 C   0  0  0  0  0  0  0  0  0  0  0  0
  -21.5542   -4.1962  -30.4142 C   0  0  0  0  0  0  0  0  0  0  0  0
  -20.9432   -4.7408  -28.1362 C   0  0  0  0  0  0  0  0  0  0  0  0
  -21.9773   -3.9321  -27.6090 C   0  0  0  0  0  0  0  0  0  0  0  0
  -22.5369   -3.3831  -29.8942 C   0  0  0  0  0  0  0  0  0  0  0  0
  -22.7800   -3.2183  -28.5303 C   0  0  0  0  0  0  0  0  0  0  0  0
  -20.9617   -5.9728  -33.3580 C   0  0  0  0  0  0  0  0  0  0  0  0
  -21.6955   -4.0449  -31.8062 C   0  0  0  0  0  0  0  0  0  0  0  0
  -19.0190   -3.5205  -26.0634 C   0  0  0  0  0  0  0  0  0  0  0  0
  -19.1365   -5.8667  -25.0015 C   0  0  0  0  0  0  0  0  0  0  0  0
  -16.9564   -4.8054  -25.5480 C   0  0  0  0  0  0  0  0  0  0  0  0
  -20.0276   -5.4961  -27.2102 C   0  0  0  0  0  0  0  0  0  0  0  0
  -23.2655   -3.0197  -25.6877 C   0  0  0  0  0  0  0  0  0  0  0  0
  -21.2603   -4.4859  -25.2503 C   0  0  2  0  0  0  0  0  0  0  0  0
  -23.6651   -3.4452  -24.2721 C   0  0  1  0  0  0  0  0  0  0  0  0
  -21.2693   -3.6003  -23.9704 C   0  0  2  0  0  0  0  0  0  0  0  0
  -19.8508   -4.7943  -25.8405 C   0  0  0  0  0  0  0  0  0  0  0  0
  -24.5094   -4.7181  -24.2567 C   0  0  0  0  0  0  0  0  0  0  0  0
  -20.3169   -4.0195  -22.8568 C   0  0  0  0  0  0  0  0  0  0  0  0
  -19.8627   -8.5007  -35.4817 C   0  0  0  0  0  0  0  0  0  0  0  0
  -20.0574   -6.4600  -34.2118 N   0  0  0  0  0  0  0  0  0  0  0  0
  -22.6842   -3.2048  -32.1269 N   0  0  0  0  0  0  0  0  0  0  0  0
  -20.5714   -7.6542  -34.5519 N   0  0  0  0  0  0  0  0  0  0  0  0
  -17.6453   -3.6997  -26.0255 N   0  0  0  0  0  0  0  0  0  0  0  0
  -17.7515   -5.8195  -25.0335 N   0  0  0  0  0  0  0  0  0  0  0  0
  -22.1744   -3.8402  -26.2291 N   0  0  3  0  0  0  0  0  0  0  0  0
  -20.8919   -4.6961  -32.6863 N   0  0  0  0  0  0  0  0  0  0  0  0
  -19.5178   -2.4252  -26.3220 O   0  0  0  0  0  0  0  0  0  0  0  0
  -19.7390   -6.7642  -24.4110 O   0  0  0  0  0  0  0  0  0  0  0  0
  -15.7256   -4.8650  -25.5436 O   0  0  0  0  0  0  0  0  0  0  0  0
  -23.2143   -2.7852  -30.9123 O   0  0  0  0  0  0  0  0  0  0  0  0
  -22.5724   -3.6148  -23.3744 O   0  0  0  0  0  0  0  0  0  0  0  0
  -23.6951   -2.3131  -28.1641 F   0  0  0  0  0  0  0  0  0  0  0  0
  -22.9131   -6.7198  -32.5247 H   0  0  0  0  0  0  0  0  0  0  0  0
  -19.9447   -5.5451  -29.8991 H   0  0  0  0  0  0  0  0  0  0  0  0
  -22.2922   -8.8597  -34.1244 H   0  0  0  0  0  0  0  0  0  0  0  0
  -20.4482   -6.5028  -27.0809 H   0  0  0  0  0  0  0  0  0  0  0  0
  -19.0473   -5.6245  -27.6895 H   0  0  0  0  0  0  0  0  0  0  0  0
  -24.1340   -3.1371  -26.3684 H   0  0  0  0  0  0  0  0  0  0  0  0
  -23.0804   -1.9348  -25.6663 H   0  0  0  0  0  0  0  0  0  0  0  0
  -21.7447   -5.4406  -24.9927 H   0  0  0  0  0  0  0  0  0  0  0  0
  -24.3365   -2.6301  -23.8291 H   0  0  0  0  0  0  0  0  0  0  0  0
  -21.0315   -2.5498  -24.2193 H   0  0  0  0  0  0  0  0  0  0  0  0
  -23.9371   -5.5505  -24.6667 H   0  0  0  0  0  0  0  0  0  0  0  0
  -25.4080   -4.5771  -24.8575 H   0  0  0  0  0  0  0  0  0  0  0  0
  -24.8018   -4.9596  -23.2346 H   0  0  0  0  0  0  0  0  0  0  0  0
  -20.5094   -5.0537  -22.5715 H   0  0  0  0  0  0  0  0  0  0  0  0
  -20.4579   -3.3800  -21.9855 H   0  0  0  0  0  0  0  0  0  0  0  0
  -19.2849   -3.9323  -23.1966 H   0  0  0  0  0  0  0  0  0  0  0  0
  -20.2049   -8.2544  -36.4903 H   0  0  0  0  0  0  0  0  0  0  0  0
  -18.7876   -8.3236  -35.3888 H   0  0  0  0  0  0  0  0  0  0  0  0
  -20.0744   -9.5483  -35.2502 H   0  0  0  0  0  0  0  0  0  0  0  0
  -17.0803   -2.9374  -26.3872 H   0  0  0  0  0  0  0  0  0  0  0  0
  -17.2635   -6.5887  -24.5836 H   0  0  0  0  0  0  0  0  0  0  0  0
  -20.0232   -4.2025  -32.9669 H   0  0  0  0  0  0  0  0  0  0  0  0
  1  3  2  0  0  0  0
  1  9  1  0  0  0  0
  2  4  2  0  0  0  0
  2  5  1  0  0  0  0
  3 25  1  0  0  0  0
  4  7  1  0  0  0  0
  4 10  1  0  0  0  0
  5  6  2  0  0  0  0
  5 14  1  0  0  0  0
  6  8  1  0  0  0  0
  6 28  1  0  0  0  0
  7  8  2  0  0  0  0
  7 33  1  0  0  0  0
  8 35  1  0  0  0  0
  9 23  2  0  0  0  0
  9 29  1  0  0  0  0
 10 24  2  0  0  0  0
 10 29  1  0  0  0  0
 11 19  1  0  0  0  0
 11 26  1  0  0  0  0
 11 30  2  0  0  0  0
 12 19  1  0  0  0  0
 12 27  1  0  0  0  0
 12 31  2  0  0  0  0
 13 26  1  0  0  0  0
 13 27  1  0  0  0  0
 13 32  2  0  0  0  0
 14 19  1  0  0  0  0
 15 17  1  0  0  0  0
 15 28  1  0  0  0  0
 16 18  1  0  0  0  0
 16 19  1  0  0  0  0
 16 28  1  0  0  0  0
 17 20  1  0  0  0  0
 17 34  1  0  0  0  0
 18 21  1  0  0  0  0
 18 34  1  0  0  0  0
 22 25  1  0  0  0  0
 23 25  1  0  0  0  0
 24 33  1  0  0  0  0
  1 36  1  0  0  0  0
  2 37  1  0  0  0  0
  3 38  1  0  0  0  0
 14 39  1  0  0  0  0
 14 40  1  0  0  0  0
 15 41  1  0  0  0  0
 15 42  1  0  0  0  0
 16 43  1  0  0  0  0
 17 44  1  0  0  0  0
 18 45  1  0  0  0  0
 20 46  1  0  0  0  0
 20 47  1  0  0  0  0
 20 48  1  0  0  0  0
 21 49  1  0  0  0  0
 21 50  1  0  0  0  0
 21 51  1  0  0  0  0
 22 52  1  0  0  0  0
 22 53  1  0  0  0  0
 22 54  1  0  0  0  0
 26 55  1  0  0  0  0
 27 56  1  0  0  0  0
 29 57  1  0  0  0  0
M  END
> <SMILES>
C[C@@H]1CN2[C@H]([C@H](C)O1)C1(Cc3cc4c(noc4c(c32)F)Nc2ccn(n2)C)C(=O)NC(=O)NC1=O

> <FORMATTED_ID>
H3D-008329

> <MOLFORMULA>
C22H22FN7O5

> <Exact Mass>
483.17

> <XLogP>
0.98

> <TPSA_NOPS>
143.9

> <s_m_source_file>
ligprep_h3d.sdf

> <i_m_source_file_index>
1204

> <i_lp_mmshare_version>
55123

> <i_f3d_flags>
0

> <s_epik_input>
Tz1DMVtOSF1DKD1PKVtOSF1DKD1PKUMxMltDQEBIXTNOKFtDSDJdW0NAQEhdKFtDSDNdKU9bQ0BIXTNbQ0gzXSljNGMoW0NIMl0yKVtjSF1jNWMoYzRGKW9uYzVbTkhdYzZbY0hdW2NIXW4objYpW0NIM10=

> <s_epik_cmdline>
J2VwaWtfcHl0aG9uJywgJy1waHQnLCAnMC41JywgJy1waCcsICc3LjUnLCAnLXRuJywgJzgnLCAnLW1hJywgJzUwMCcsICctaW1hZScsICc8aW5maWxlLm1hZT4nLCAnLW9tYWUnLCAnPG91dGZpbGUubWFlPic=

> <r_lp_tautomer_probability>
1

> <r_epik_Ionization_Penalty>
0.370002

> <r_epik_Ionization_Penalty_Charging>
0

> <r_epik_Ionization_Penalty_Neutral>
0.370002

> <r_epik_State_Penalty>
0.366447

> <r_epik_Charging_Adjusted_Penalty>
0.366447

> <i_epik_Tot_Q>
0

> <i_epik_Tot_abs_Q>
0

> <s_lp_Force_Field>
S-OPLS

> <r_lp_Energy>
43.3844

> <b_lp_Chiralities_Consistent>
1

> <s_lp_Variant>
ligprep_h3d.sdf:1204-1

> <ROCS_ShapeQuery>
_7L13

> <ROCS_TanimotoCombo>
0.747 

> <ROCS_ShapeTanimoto>
0.627 

> <ROCS_ColorTanimoto>
0.121 

> <ROCS_RefTversky>
0.773 

> <ROCS_RefColorTversky>
0.278 

> <ROCS_RefTverskyCombo>
1.051 

> <ROCS_FitTversky>
0.768 

> <ROCS_FitColorTversky>
0.176 

> <ROCS_FitTverskyCombo>
0.944 

> <ROCS_ColorScore>
-2.586

> <ROCS_Overlap>
1283.536

> <ROCS_Rank>
476                 

$$$$
ligprep_h3d.sdf:5159_60
  -OEChem-08212117123D

 63 67  0     1  0  0  0  0  0999 V2000
  -27.0018   -4.7801  -22.3556 C   0  0  0  0  0  0  0  0  0  0  0  0
  -26.5254   -3.5703  -22.8605 C   0  0  0  0  0  0  0  0  0  0  0  0
  -26.3304   -5.9685  -22.6431 C   0  0  0  0  0  0  0  0  0  0  0  0
  -14.8293   -6.5112  -24.8598 C   0  0  0  0  0  0  0  0  0  0  0  0
  -21.9981   -4.2958  -32.7654 C   0  0  0  0  0  0  0  0  0  0  0  0
  -21.2673   -6.4219  -31.8805 C   0  0  0  0  0  0  0  0  0  0  0  0
  -25.3777   -3.5488  -23.6529 C   0  0  0  0  0  0  0  0  0  0  0  0
  -25.1826   -5.9471  -23.4355 C   0  0  0  0  0  0  0  0  0  0  0  0
  -15.8654   -5.6030  -25.0464 C   0  0  0  0  0  0  0  0  0  0  0  0
  -21.5691   -4.6774  -34.0365 C   0  0  0  0  0  0  0  0  0  0  0  0
  -20.8384   -6.8035  -33.1517 C   0  0  0  0  0  0  0  0  0  0  0  0
  -15.1188   -7.8603  -24.9859 C   0  0  0  0  0  0  0  0  0  0  0  0
  -17.3274   -7.4341  -25.4535 C   0  0  0  0  0  0  0  0  0  0  0  0
  -21.8471   -5.1680  -31.6873 C   0  0  0  0  0  0  0  0  0  0  0  0
  -24.7063   -4.7372  -23.9404 C   0  0  0  0  0  0  0  0  0  0  0  0
  -17.1414   -6.0651  -25.3491 C   0  0  0  0  0  0  0  0  0  0  0  0
  -20.9893   -5.9313  -34.2297 C   0  0  0  0  0  0  0  0  0  0  0  0
  -21.2236   -4.0606  -29.5397 C   0  0  0  0  0  0  0  0  0  0  0  0
  -20.2696   -3.6320  -27.2907 C   0  0  0  0  0  0  0  0  0  0  0  0
  -22.8604   -3.6447  -25.3695 C   0  0  0  0  0  0  0  0  0  0  0  0
  -22.5016   -5.6620  -24.9031 C   0  0  0  0  0  0  0  0  0  0  0  0
  -22.2354   -5.0533  -27.4383 C   0  0  0  0  0  0  0  0  0  0  0  0
  -20.4293   -4.3358  -25.9469 C   0  0  1  0  0  0  0  0  0  0  0  0
  -21.9129   -4.7164  -25.9787 C   0  0  0  0  0  0  0  0  0  0  0  0
  -22.3089   -4.7581  -30.3205 C   0  0  0  0  0  0  0  0  0  0  0  0
  -19.5343   -5.5701  -25.8541 C   0  0  0  0  0  0  0  0  0  0  0  0
  -19.4708   -7.2001  -35.5701 C   0  0  0  0  0  0  0  0  0  0  0  0
  -16.3456   -8.3469  -25.2790 N   0  0  0  0  0  0  0  0  0  0  0  0
  -23.5527   -4.7160  -24.7366 N   0  0  0  0  0  0  0  0  0  0  0  0
  -21.2548   -4.2524  -28.1676 N   0  0  0  0  0  0  0  0  0  0  0  0
  -18.2018   -5.1766  -25.5421 N   0  0  0  0  0  0  0  0  0  0  0  0
  -20.3852   -3.3694  -30.1207 O   0  0  0  0  0  0  0  0  0  0  0  0
  -20.5719   -6.3039  -35.4705 O   0  0  0  0  0  0  0  0  0  0  0  0
  -18.6244   -7.0472  -34.5297 F   0  0  0  0  0  0  0  0  0  0  0  0
  -18.7885   -6.9274  -36.7056 F   0  0  0  0  0  0  0  0  0  0  0  0
  -19.8913   -8.4812  -35.6355 F   0  0  0  0  0  0  0  0  0  0  0  0
  -27.8957   -4.7967  -21.7388 H   0  0  0  0  0  0  0  0  0  0  0  0
  -27.0482   -2.6453  -22.6368 H   0  0  0  0  0  0  0  0  0  0  0  0
  -26.7015   -6.9106  -22.2498 H   0  0  0  0  0  0  0  0  0  0  0  0
  -13.8267   -6.1739  -24.6231 H   0  0  0  0  0  0  0  0  0  0  0  0
  -22.4486   -3.3171  -32.6240 H   0  0  0  0  0  0  0  0  0  0  0  0
  -21.1456   -7.1080  -31.0462 H   0  0  0  0  0  0  0  0  0  0  0  0
  -25.0147   -2.6008  -24.0416 H   0  0  0  0  0  0  0  0  0  0  0  0
  -24.6676   -6.8794  -23.6526 H   0  0  0  0  0  0  0  0  0  0  0  0
  -15.6681   -4.5383  -24.9537 H   0  0  0  0  0  0  0  0  0  0  0  0
  -21.6896   -3.9936  -34.8726 H   0  0  0  0  0  0  0  0  0  0  0  0
  -20.3879   -7.7815  -33.2957 H   0  0  0  0  0  0  0  0  0  0  0  0
  -14.3456   -8.6093  -24.8501 H   0  0  0  0  0  0  0  0  0  0  0  0
  -18.3008   -7.8549  -25.6876 H   0  0  0  0  0  0  0  0  0  0  0  0
  -20.5394   -2.5722  -27.2117 H   0  0  0  0  0  0  0  0  0  0  0  0
  -19.2640   -3.6993  -27.7177 H   0  0  0  0  0  0  0  0  0  0  0  0
  -22.4032   -2.9618  -24.6450 H   0  0  0  0  0  0  0  0  0  0  0  0
  -23.4854   -3.0805  -26.0669 H   0  0  0  0  0  0  0  0  0  0  0  0
  -22.8515   -6.6371  -25.2514 H   0  0  0  0  0  0  0  0  0  0  0  0
  -21.9008   -5.7769  -23.9948 H   0  0  0  0  0  0  0  0  0  0  0  0
  -22.0434   -6.1072  -27.6654 H   0  0  0  0  0  0  0  0  0  0  0  0
  -23.2541   -4.7963  -27.7421 H   0  0  0  0  0  0  0  0  0  0  0  0
  -20.1889   -3.6608  -25.1181 H   0  0  0  0  0  0  0  0  0  0  0  0
  -23.1667   -4.0879  -30.3982 H   0  0  0  0  0  0  0  0  0  0  0  0
  -22.6421   -5.6251  -29.7481 H   0  0  0  0  0  0  0  0  0  0  0  0
  -19.9411   -6.2048  -25.0688 H   0  0  0  0  0  0  0  0  0  0  0  0
  -19.5710   -6.0683  -26.8213 H   0  0  0  0  0  0  0  0  0  0  0  0
  -17.9863   -4.1804  -25.4500 H   0  0  0  0  0  0  0  0  0  0  0  0
  1  2  2  0  0  0  0
  1  3  1  0  0  0  0
  2  7  1  0  0  0  0
  3  8  2  0  0  0  0
  4  9  1  0  0  0  0
  4 12  2  0  0  0  0
  5 10  1  0  0  0  0
  5 14  2  0  0  0  0
  6 11  2  0  0  0  0
  6 14  1  0  0  0  0
  7 15  2  0  0  0  0
  8 15  1  0  0  0  0
  9 16  2  0  0  0  0
 10 17  2  0  0  0  0
 11 17  1  0  0  0  0
 12 28  1  0  0  0  0
 13 16  1  0  0  0  0
 13 28  2  0  0  0  0
 14 25  1  0  0  0  0
 15 29  1  0  0  0  0
 16 31  1  0  0  0  0
 17 33  1  0  0  0  0
 18 25  1  0  0  0  0
 18 30  1  0  0  0  0
 18 32  2  0  0  0  0
 19 23  1  0  0  0  0
 19 30  1  0  0  0  0
 20 24  1  0  0  0  0
 20 29  1  0  0  0  0
 21 24  1  0  0  0  0
 21 29  1  0  0  0  0
 22 24  1  0  0  0  0
 22 30  1  0  0  0  0
 23 24  1  0  0  0  0
 23 26  1  0  0  0  0
 26 31  1  0  0  0  0
 27 33  1  0  0  0  0
 27 34  1  0  0  0  0
 27 35  1  0  0  0  0
 27 36  1  0  0  0  0
  1 37  1  0  0  0  0
  2 38  1  0  0  0  0
  3 39  1  0  0  0  0
  4 40  1  0  0  0  0
  5 41  1  0  0  0  0
  6 42  1  0  0  0  0
  7 43  1  0  0  0  0
  8 44  1  0  0  0  0
  9 45  1  0  0  0  0
 10 46  1  0  0  0  0
 11 47  1  0  0  0  0
 12 48  1  0  0  0  0
 13 49  1  0  0  0  0
 19 50  1  0  0  0  0
 19 51  1  0  0  0  0
 20 52  1  0  0  0  0
 20 53  1  0  0  0  0
 21 54  1  0  0  0  0
 21 55  1  0  0  0  0
 22 56  1  0  0  0  0
 22 57  1  0  0  0  0
 23 58  1  0  0  0  0
 25 59  1  0  0  0  0
 25 60  1  0  0  0  0
 26 61  1  0  0  0  0
 26 62  1  0  0  0  0
 31 63  1  0  0  0  0
M  END
> <SMILES>
FC(F)(F)Oc1ccc(cc1)CC(=O)N1CC(CNc2cccnc2)C2(C1)CN(C2)c1ccccc1

> <FORMATTED_ID>
H3D-013976

> <MOLFORMULA>
C27H27F3N4O2

> <Exact Mass>
496.21

> <XLogP>
4.24

> <TPSA_NOPS>
57.7

> <s_m_source_file>
ligprep_h3d.sdf

> <i_m_source_file_index>
5159

> <i_lp_mmshare_version>
55123

> <i_f3d_flags>
0

> <s_epik_input>
RkMoRikoRilPYzFbY0hdW2NIXWMoW2NIXVtjSF0xKVtDSDJdQyg9TylOKFtDSDJdMilbQ0gyXVtDQEhdKFtDSDJdW05IXWMzW2NIXVtjSF1bY0hdbltjSF0zKUMyNFtDSDJdTihbQ0gyXTQpYzVbY0hdW2NIXVtjSF1bY0hdW2NIXTU=

> <s_epik_cmdline>
J2VwaWtfcHl0aG9uJywgJy1waHQnLCAnMC41JywgJy1waCcsICc3LjUnLCAnLXRuJywgJzgnLCAnLW1hJywgJzUwMCcsICctaW1hZScsICc8aW5maWxlLm1hZT4nLCAnLW9tYWUnLCAnPG91dGZpbGUubWFlPic=

> <r_lp_tautomer_probability>
1

> <r_epik_Ionization_Penalty>
0.0528613

> <r_epik_Ionization_Penalty_Charging>
0

> <r_epik_Ionization_Penalty_Neutral>
0.0528613

> <r_epik_State_Penalty>
0.0443031

> <r_epik_Charging_Adjusted_Penalty>
0.0443031

> <i_epik_Tot_Q>
0

> <i_epik_Tot_abs_Q>
0

> <s_lp_Force_Field>
S-OPLS

> <r_lp_Energy>
42.1392

> <b_lp_Chiralities_Consistent>
1

> <s_lp_Variant>
ligprep_h3d.sdf:5159-1

> <ROCS_ShapeQuery>
_7L13

> <ROCS_TanimotoCombo>
0.695 

> <ROCS_ShapeTanimoto>
0.630 

> <ROCS_ColorTanimoto>
0.065 

> <ROCS_RefTversky>
0.773 

> <ROCS_RefColorTversky>
0.122 

> <ROCS_RefTverskyCombo>
0.894 

> <ROCS_FitTversky>
0.774 

> <ROCS_FitColorTversky>
0.122 

> <ROCS_FitTverskyCombo>
0.895 

> <ROCS_ColorScore>
-1.095

> <ROCS_Overlap>
1283.059

> <ROCS_Rank>
477                 

$$$$
ligprep_h3d.sdf:1362_298
  -OEChem-08212117123D

 69 73  0     1  0  0  0  0  0999 V2000
  -20.2765   -4.1922  -32.1176 C   0  0  0  0  0  0  0  0  0  0  0  0
  -20.6685   -6.5426  -31.7189 C   0  0  0  0  0  0  0  0  0  0  0  0
  -19.7392   -4.4940  -33.3689 C   0  0  0  0  0  0  0  0  0  0  0  0
  -20.1312   -6.8444  -32.9703 C   0  0  0  0  0  0  0  0  0  0  0  0
  -16.9126   -5.6371  -26.2842 C   0  0  0  0  0  0  0  0  0  0  0  0
  -23.2111   -4.3512  -28.6204 C   0  0  0  0  0  0  0  0  0  0  0  0
  -20.8244   -4.1723  -25.2230 C   0  0  0  0  0  0  0  0  0  0  0  0
  -16.8322   -4.2512  -26.5177 C   0  0  0  0  0  0  0  0  0  0  0  0
  -21.0422   -4.5399  -27.6026 C   0  0  0  0  0  0  0  0  0  0  0  0
  -20.7412   -5.2165  -31.2926 C   0  0  0  0  0  0  0  0  0  0  0  0
  -21.3010   -4.9019  -29.9887 C   0  0  0  0  0  0  0  0  0  0  0  0
  -19.6665   -5.8201  -33.7953 C   0  0  0  0  0  0  0  0  0  0  0  0
  -22.6629   -4.6546  -29.8691 C   0  0  0  0  0  0  0  0  0  0  0  0
  -20.4906   -4.8451  -28.8585 C   0  0  0  0  0  0  0  0  0  0  0  0
  -22.4242   -4.2878  -27.4737 C   0  0  0  0  0  0  0  0  0  0  0  0
  -20.2496   -4.4761  -26.4487 C   0  0  0  0  0  0  0  0  0  0  0  0
  -22.1848   -3.9411  -25.1961 C   0  0  0  0  0  0  0  0  0  0  0  0
  -18.2598   -5.8983  -26.2279 C   0  0  0  0  0  0  0  0  0  0  0  0
  -19.0971   -6.1400  -35.1214 C   0  0  0  0  0  0  0  0  0  0  0  0
  -22.8498   -3.6196  -23.9451 C   0  0  0  0  0  0  0  0  0  0  0  0
  -18.0405   -5.2993  -35.7544 C   0  0  0  0  0  0  0  0  0  0  0  0
  -17.5982   -6.2642  -36.8298 C   0  0  1  0  0  0  0  0  0  0  0  0
  -23.5786   -4.7012  -31.0511 C   0  0  0  0  0  0  0  0  0  0  0  0
  -19.0280   -5.1239  -29.0651 C   0  0  0  0  0  0  0  0  0  0  0  0
  -18.9835   -7.1660  -26.0086 C   0  0  0  0  0  0  0  0  0  0  0  0
  -26.3954   -3.9777  -20.9472 C   0  0  0  0  0  0  0  0  0  0  0  0
  -16.3917   -7.1045  -36.4328 C   0  0  0  0  0  0  0  0  0  0  0  0
  -25.0295   -3.0470  -22.8441 C   0  0  0  0  0  0  0  0  0  0  0  0
  -25.5489   -4.3133  -22.1677 C   0  0  2  0  0  0  0  0  0  0  0  0
  -18.0328   -3.6723  -26.6040 N   0  0  0  0  0  0  0  0  0  0  0  0
  -22.9848   -3.9927  -26.2857 N   0  0  0  0  0  0  0  0  0  0  0  0
  -19.4837   -7.1456  -35.8403 N   0  0  0  0  0  0  0  0  0  0  0  0
  -18.8804   -4.6996  -26.4239 N   0  0  0  0  0  0  0  0  0  0  0  0
  -24.2317   -3.3980  -23.9969 N   0  0  0  0  0  0  0  0  0  0  0  0
  -22.1995   -3.5289  -22.8878 O   0  0  0  0  0  0  0  0  0  0  0  0
  -18.7249   -7.1253  -37.0360 O   0  0  0  0  0  0  0  0  0  0  0  0
  -16.7209   -7.8515  -35.2749 O   0  0  0  0  0  0  0  0  0  0  0  0
  -26.3565   -5.0295  -23.1000 O   0  0  0  0  0  0  0  0  0  0  0  0
  -20.3264   -3.1535  -31.7994 H   0  0  0  0  0  0  0  0  0  0  0  0
  -21.0265   -7.3521  -31.0873 H   0  0  0  0  0  0  0  0  0  0  0  0
  -19.3800   -3.6880  -34.0038 H   0  0  0  0  0  0  0  0  0  0  0  0
  -20.0794   -7.8812  -33.2926 H   0  0  0  0  0  0  0  0  0  0  0  0
  -16.1051   -6.3459  -26.1730 H   0  0  0  0  0  0  0  0  0  0  0  0
  -24.2807   -4.1595  -28.5414 H   0  0  0  0  0  0  0  0  0  0  0  0
  -20.2329   -4.1165  -24.3133 H   0  0  0  0  0  0  0  0  0  0  0  0
  -15.9487   -3.6390  -26.6287 H   0  0  0  0  0  0  0  0  0  0  0  0
  -18.5188   -4.4123  -36.1830 H   0  0  0  0  0  0  0  0  0  0  0  0
  -17.2518   -5.0002  -35.0606 H   0  0  0  0  0  0  0  0  0  0  0  0
  -17.3819   -5.7355  -37.7637 H   0  0  0  0  0  0  0  0  0  0  0  0
  -23.6420   -3.7128  -31.5187 H   0  0  0  0  0  0  0  0  0  0  0  0
  -23.2225   -5.4210  -31.7971 H   0  0  0  0  0  0  0  0  0  0  0  0
  -24.5865   -5.0161  -30.7564 H   0  0  0  0  0  0  0  0  0  0  0  0
  -18.8346   -6.1929  -28.9461 H   0  0  0  0  0  0  0  0  0  0  0  0
  -18.7124   -4.8126  -30.0647 H   0  0  0  0  0  0  0  0  0  0  0  0
  -18.4228   -4.5685  -28.3431 H   0  0  0  0  0  0  0  0  0  0  0  0
  -19.1688   -7.3370  -24.9355 H   0  0  0  0  0  0  0  0  0  0  0  0
  -19.9591   -7.1800  -26.5236 H   0  0  0  0  0  0  0  0  0  0  0  0
  -18.4227   -8.0345  -26.3945 H   0  0  0  0  0  0  0  0  0  0  0  0
  -27.2364   -3.3297  -21.2121 H   0  0  0  0  0  0  0  0  0  0  0  0
  -26.7858   -4.8880  -20.4785 H   0  0  0  0  0  0  0  0  0  0  0  0
  -25.7903   -3.4686  -20.1891 H   0  0  0  0  0  0  0  0  0  0  0  0
  -15.5410   -6.4580  -36.2127 H   0  0  0  0  0  0  0  0  0  0  0  0
  -16.1307   -7.7904  -37.2400 H   0  0  0  0  0  0  0  0  0  0  0  0
  -25.8600   -2.4137  -23.1740 H   0  0  0  0  0  0  0  0  0  0  0  0
  -24.4082   -2.4668  -22.1540 H   0  0  0  0  0  0  0  0  0  0  0  0
  -24.7154   -4.9620  -21.8744 H   0  0  0  0  0  0  0  0  0  0  0  0
  -24.7037   -3.4222  -24.8948 H   0  0  0  0  0  0  0  0  0  0  0  0
  -15.9368   -8.3775  -35.0431 H   0  0  0  0  0  0  0  0  0  0  0  0
  -26.6542   -5.8326  -22.6459 H   0  0  0  0  0  0  0  0  0  0  0  0
  1  3  1  0  0  0  0
  1 10  2  0  0  0  0
  2  4  2  0  0  0  0
  2 10  1  0  0  0  0
  3 12  2  0  0  0  0
  4 12  1  0  0  0  0
  5  8  1  0  0  0  0
  5 18  2  0  0  0  0
  6 13  2  0  0  0  0
  6 15  1  0  0  0  0
  7 16  1  0  0  0  0
  7 17  2  0  0  0  0
  8 30  2  0  0  0  0
  9 14  1  0  0  0  0
  9 15  1  0  0  0  0
  9 16  2  0  0  0  0
 10 11  1  0  0  0  0
 11 13  1  0  0  0  0
 11 14  2  0  0  0  0
 12 19  1  0  0  0  0
 13 23  1  0  0  0  0
 14 24  1  0  0  0  0
 15 31  2  0  0  0  0
 16 33  1  0  0  0  0
 17 20  1  0  0  0  0
 17 31  1  0  0  0  0
 18 25  1  0  0  0  0
 18 33  1  0  0  0  0
 19 21  1  0  0  0  0
 19 32  2  0  0  0  0
 20 34  1  0  0  0  0
 20 35  2  0  0  0  0
 21 22  1  0  0  0  0
 22 27  1  0  0  0  0
 22 36  1  0  0  0  0
 26 29  1  0  0  0  0
 27 37  1  0  0  0  0
 28 29  1  0  0  0  0
 28 34  1  0  0  0  0
 29 38  1  0  0  0  0
 30 33  1  0  0  0  0
 32 36  1  0  0  0  0
  1 39  1  0  0  0  0
  2 40  1  0  0  0  0
  3 41  1  0  0  0  0
  4 42  1  0  0  0  0
  5 43  1  0  0  0  0
  6 44  1  0  0  0  0
  7 45  1  0  0  0  0
  8 46  1  0  0  0  0
 21 47  1  0  0  0  0
 21 48  1  0  0  0  0
 22 49  1  0  0  0  0
 23 50  1  0  0  0  0
 23 51  1  0  0  0  0
 23 52  1  0  0  0  0
 24 53  1  0  0  0  0
 24 54  1  0  0  0  0
 24 55  1  0  0  0  0
 25 56  1  0  0  0  0
 25 57  1  0  0  0  0
 25 58  1  0  0  0  0
 26 59  1  0  0  0  0
 26 60  1  0  0  0  0
 26 61  1  0  0  0  0
 27 62  1  0  0  0  0
 27 63  1  0  0  0  0
 28 64  1  0  0  0  0
 28 65  1  0  0  0  0
 29 66  1  0  0  0  0
 34 67  1  0  0  0  0
 37 68  1  0  0  0  0
 38 69  1  0  0  0  0
M  END
> <SMILES>
C[C@@H](O)CNC(=O)c1cc(c2c(c(c(cc2n1)C)-c1ccc(cc1)C1=NOC(CO)C1)C)-n1nccc1C

> <FORMATTED_ID>
H3D-009195

> <MOLFORMULA>
C29H31N5O4

> <Exact Mass>
513.24

> <XLogP>
3.41

> <TPSA_NOPS>
121.9

> <s_m_source_file>
ligprep_h3d.sdf

> <i_m_source_file_index>
1362

> <i_lp_mmshare_version>
55123

> <i_f3d_flags>
0

> <s_epik_input>
W0NIM11jMVtjSF1bY0hdbm4xLWMyW2NIXWMoQyg9TylbTkhdW0NIMl1bQ0BASF0oW0NIM10pW09IXSluYyhjMjMpW2NIXWMoW0NIM10pYyhjM1tDSDNdKS1jNFtjSF1bY0hdYyhbY0hdW2NIXTQpQzU9Tk9bQ0BASF0oW0NIMl01KVtDSDJdW09IXQ==

> <s_epik_cmdline>
J2VwaWtfcHl0aG9uJywgJy1waHQnLCAnMC41JywgJy1waCcsICc3LjUnLCAnLXRuJywgJzgnLCAnLW1hJywgJzUwMCcsICctaW1hZScsICc8aW5maWxlLm1hZT4nLCAnLW9tYWUnLCAnPG91dGZpbGUubWFlPic=

> <r_lp_tautomer_probability>
1

> <r_epik_Ionization_Penalty>
1.64344e-05

> <r_epik_Ionization_Penalty_Charging>
0

> <r_epik_Ionization_Penalty_Neutral>
1.64344e-05

> <r_epik_State_Penalty>
-0

> <r_epik_Charging_Adjusted_Penalty>
0

> <i_epik_Tot_Q>
0

> <i_epik_Tot_abs_Q>
0

> <s_epik_Chemistry_Notes>
This compound has an imine and may undergo hydrolysis.

> <s_lp_Force_Field>
S-OPLS

> <r_lp_Energy>
34.4288

> <b_lp_Chiralities_Consistent>
1

> <s_lp_Variant>
ligprep_h3d.sdf:1362-1

> <ROCS_ShapeQuery>
_7L13

> <ROCS_TanimotoCombo>
0.708 

> <ROCS_ShapeTanimoto>
0.602 

> <ROCS_ColorTanimoto>
0.106 

> <ROCS_RefTversky>
0.773 

> <ROCS_RefColorTversky>
0.238 

> <ROCS_RefTverskyCombo>
1.010 

> <ROCS_FitTversky>
0.731 

> <ROCS_FitColorTversky>
0.160 

> <ROCS_FitTverskyCombo>
0.891 

> <ROCS_ColorScore>
-2.200

> <ROCS_Overlap>
1287.155

> <ROCS_Rank>
478                 

$$$$
ligprep_h3d.sdf:1359_1813
  -OEChem-08212117123D

 67 71  0     1  0  0  0  0  0999 V2000
  -19.8199   -3.7729  -32.0266 C   0  0  0  0  0  0  0  0  0  0  0  0
  -20.1525   -6.1633  -31.9138 C   0  0  0  0  0  0  0  0  0  0  0  0
  -19.1366   -3.9249  -33.2330 C   0  0  0  0  0  0  0  0  0  0  0  0
  -19.4692   -6.3153  -33.1203 C   0  0  0  0  0  0  0  0  0  0  0  0
  -17.0552   -5.7170  -26.0266 C   0  0  0  0  0  0  0  0  0  0  0  0
  -23.1097   -4.3891  -28.9177 C   0  0  0  0  0  0  0  0  0  0  0  0
  -21.1184   -4.4938  -25.2715 C   0  0  0  0  0  0  0  0  0  0  0  0
  -17.0089   -4.3124  -26.1085 C   0  0  0  0  0  0  0  0  0  0  0  0
  -21.0590   -4.6162  -27.6853 C   0  0  0  0  0  0  0  0  0  0  0  0
  -20.3279   -4.8921  -31.3669 C   0  0  0  0  0  0  0  0  0  0  0  0
  -21.0398   -4.7337  -30.1096 C   0  0  0  0  0  0  0  0  0  0  0  0
  -18.9612   -5.1961  -33.7799 C   0  0  0  0  0  0  0  0  0  0  0  0
  -22.4159   -4.5427  -30.1205 C   0  0  0  0  0  0  0  0  0  0  0  0
  -20.3609   -4.7707  -28.8951 C   0  0  0  0  0  0  0  0  0  0  0  0
  -22.4562   -4.4221  -27.6888 C   0  0  0  0  0  0  0  0  0  0  0  0
  -20.4006   -4.6493  -26.4486 C   0  0  0  0  0  0  0  0  0  0  0  0
  -18.3883   -6.0243  -26.1494 C   0  0  0  0  0  0  0  0  0  0  0  0
  -22.4822   -4.3090  -25.3754 C   0  0  0  0  0  0  0  0  0  0  0  0
  -19.1825   -7.3508  -36.2961 C   0  0  0  0  0  0  0  0  0  0  0  0
  -20.7486   -6.1780  -37.6511 C   0  0  0  0  0  0  0  0  0  0  0  0
  -19.7465   -5.1935  -37.0817 C   0  0  0  0  0  0  0  0  0  0  0  0
  -20.0315   -7.5194  -37.5418 C   0  0  2  0  0  0  0  0  0  0  0  0
  -23.1944   -4.4958  -31.3970 C   0  0  0  0  0  0  0  0  0  0  0  0
  -18.8739   -4.9793  -28.9623 C   0  0  0  0  0  0  0  0  0  0  0  0
  -19.0770   -7.3299  -26.1421 C   0  0  0  0  0  0  0  0  0  0  0  0
  -18.2304   -5.3587  -35.0697 C   0  0  0  0  0  0  0  0  0  0  0  0
  -24.6184   -4.3660  -24.0874 C   0  0  0  0  0  0  0  0  0  0  0  0
  -25.0181   -4.5674  -22.6371 C   0  0  0  0  0  0  0  0  0  0  0  0
  -18.2165   -3.7652  -26.2709 N   0  0  0  0  0  0  0  0  0  0  0  0
  -23.1554   -4.2708  -26.5481 N   0  0  0  0  0  0  0  0  0  0  0  0
  -19.0341   -4.8316  -26.2921 N   0  0  0  0  0  0  0  0  0  0  0  0
  -19.0471   -5.9783  -36.0903 N   0  0  0  0  0  0  0  0  0  0  0  0
  -23.2106   -4.1506  -24.1704 N   0  0  0  0  0  0  0  0  0  0  0  0
  -18.7126   -8.2654  -35.6364 O   0  0  0  0  0  0  0  0  0  0  0  0
  -20.9493   -8.5759  -37.4228 O   0  0  0  0  0  0  0  0  0  0  0  0
  -26.4264   -4.7462  -22.5559 O   0  0  0  0  0  0  0  0  0  0  0  0
  -19.9478   -2.7755  -31.6128 H   0  0  0  0  0  0  0  0  0  0  0  0
  -20.5432   -7.0453  -31.4119 H   0  0  0  0  0  0  0  0  0  0  0  0
  -18.7432   -3.0475  -33.7395 H   0  0  0  0  0  0  0  0  0  0  0  0
  -19.3377   -7.3094  -33.5395 H   0  0  0  0  0  0  0  0  0  0  0  0
  -16.2353   -6.4082  -25.8971 H   0  0  0  0  0  0  0  0  0  0  0  0
  -24.1886   -4.2403  -28.9413 H   0  0  0  0  0  0  0  0  0  0  0  0
  -20.6294   -4.5159  -24.3015 H   0  0  0  0  0  0  0  0  0  0  0  0
  -16.1454   -3.6649  -26.0568 H   0  0  0  0  0  0  0  0  0  0  0  0
  -21.6723   -6.1816  -37.0586 H   0  0  0  0  0  0  0  0  0  0  0  0
  -21.0237   -5.9444  -38.6842 H   0  0  0  0  0  0  0  0  0  0  0  0
  -19.0242   -4.8599  -37.8331 H   0  0  0  0  0  0  0  0  0  0  0  0
  -20.2340   -4.3314  -36.6188 H   0  0  0  0  0  0  0  0  0  0  0  0
  -19.3734   -7.6874  -38.4015 H   0  0  0  0  0  0  0  0  0  0  0  0
  -23.2499   -3.4665  -31.7677 H   0  0  0  0  0  0  0  0  0  0  0  0
  -22.7278   -5.1218  -32.1663 H   0  0  0  0  0  0  0  0  0  0  0  0
  -24.2135   -4.8724  -31.2509 H   0  0  0  0  0  0  0  0  0  0  0  0
  -18.6482   -6.0481  -28.9301 H   0  0  0  0  0  0  0  0  0  0  0  0
  -18.4651   -4.5553  -29.8837 H   0  0  0  0  0  0  0  0  0  0  0  0
  -18.3755   -4.4833  -28.1246 H   0  0  0  0  0  0  0  0  0  0  0  0
  -19.3708   -7.6183  -25.1196 H   0  0  0  0  0  0  0  0  0  0  0  0
  -19.9892   -7.3200  -26.7627 H   0  0  0  0  0  0  0  0  0  0  0  0
  -18.4411   -8.1353  -26.5479 H   0  0  0  0  0  0  0  0  0  0  0  0
  -17.8950   -4.3876  -35.4601 H   0  0  0  0  0  0  0  0  0  0  0  0
  -17.3317   -5.9790  -34.9483 H   0  0  0  0  0  0  0  0  0  0  0  0
  -24.8674   -5.2431  -24.6931 H   0  0  0  0  0  0  0  0  0  0  0  0
  -25.1229   -3.4886  -24.5032 H   0  0  0  0  0  0  0  0  0  0  0  0
  -24.7555   -3.6821  -22.0497 H   0  0  0  0  0  0  0  0  0  0  0  0
  -24.5262   -5.4434  -22.2019 H   0  0  0  0  0  0  0  0  0  0  0  0
  -22.6880   -3.8749  -23.3642 H   0  0  0  0  0  0  0  0  0  0  0  0
  -21.4564   -8.6239  -38.2552 H   0  0  0  0  0  0  0  0  0  0  0  0
  -26.6385   -4.8709  -21.6169 H   0  0  0  0  0  0  0  0  0  0  0  0
  1  3  1  0  0  0  0
  1 10  2  0  0  0  0
  2  4  2  0  0  0  0
  2 10  1  0  0  0  0
  3 12  2  0  0  0  0
  4 12  1  0  0  0  0
  5  8  1  0  0  0  0
  5 17  2  0  0  0  0
  6 13  2  0  0  0  0
  6 15  1  0  0  0  0
  7 16  1  0  0  0  0
  7 18  2  0  0  0  0
  8 29  2  0  0  0  0
  9 14  1  0  0  0  0
  9 15  1  0  0  0  0
  9 16  2  0  0  0  0
 10 11  1  0  0  0  0
 11 13  1  0  0  0  0
 11 14  2  0  0  0  0
 12 26  1  0  0  0  0
 13 23  1  0  0  0  0
 14 24  1  0  0  0  0
 15 30  2  0  0  0  0
 16 31  1  0  0  0  0
 17 25  1  0  0  0  0
 17 31  1  0  0  0  0
 18 30  1  0  0  0  0
 18 33  1  0  0  0  0
 19 22  1  0  0  0  0
 19 32  1  0  0  0  0
 19 34  2  0  0  0  0
 20 21  1  0  0  0  0
 20 22  1  0  0  0  0
 21 32  1  0  0  0  0
 22 35  1  0  0  0  0
 26 32  1  0  0  0  0
 27 28  1  0  0  0  0
 27 33  1  0  0  0  0
 28 36  1  0  0  0  0
 29 31  1  0  0  0  0
  1 37  1  0  0  0  0
  2 38  1  0  0  0  0
  3 39  1  0  0  0  0
  4 40  1  0  0  0  0
  5 41  1  0  0  0  0
  6 42  1  0  0  0  0
  7 43  1  0  0  0  0
  8 44  1  0  0  0  0
 20 45  1  0  0  0  0
 20 46  1  0  0  0  0
 21 47  1  0  0  0  0
 21 48  1  0  0  0  0
 22 49  1  0  0  0  0
 23 50  1  0  0  0  0
 23 51  1  0  0  0  0
 23 52  1  0  0  0  0
 24 53  1  0  0  0  0
 24 54  1  0  0  0  0
 24 55  1  0  0  0  0
 25 56  1  0  0  0  0
 25 57  1  0  0  0  0
 25 58  1  0  0  0  0
 26 59  1  0  0  0  0
 26 60  1  0  0  0  0
 27 61  1  0  0  0  0
 27 62  1  0  0  0  0
 28 63  1  0  0  0  0
 28 64  1  0  0  0  0
 33 65  1  0  0  0  0
 35 66  1  0  0  0  0
 36 67  1  0  0  0  0
M  END
> <SMILES>
Cc1cc2nc(cc(c2c(c1-c1ccc(cc1)CN1CC[C@H](O)C1=O)C)-n1nccc1C)NCCO

> <FORMATTED_ID>
H3D-009183

> <MOLFORMULA>
C28H31N5O3

> <Exact Mass>
485.24

> <XLogP>
3.49

> <TPSA_NOPS>
103.5

> <s_m_source_file>
ligprep_h3d.sdf

> <i_m_source_file_index>
1359

> <i_lp_mmshare_version>
55123

> <i_f3d_flags>
0

> <s_epik_input>
W0NIM11jMVtjSF1bY0hdbm4xLWMoW2NIXWMobjIpW05IXVtDSDJdW0NIMl1bT0hdKWMoYzIzKWMoW0NIM10pYyhjKFtDSDNdKVtjSF0zKS1jNFtjSF1bY0hdYyhbY0hdW2NIXTQpW0NIMl1ONVtDSDJdW0NIMl1bQ0BIXShbT0hdKUM1PU8=

> <s_epik_cmdline>
J2VwaWtfcHl0aG9uJywgJy1waHQnLCAnMC41JywgJy1waCcsICc3LjUnLCAnLXRuJywgJzgnLCAnLW1hJywgJzUwMCcsICctaW1hZScsICc8aW5maWxlLm1hZT4nLCAnLW9tYWUnLCAnPG91dGZpbGUubWFlPic=

> <r_lp_tautomer_probability>
1

> <r_epik_Ionization_Penalty>
0.00499066

> <r_epik_Ionization_Penalty_Charging>
0

> <r_epik_Ionization_Penalty_Neutral>
0.00499066

> <r_epik_State_Penalty>
-0

> <r_epik_Charging_Adjusted_Penalty>
0

> <i_epik_Tot_Q>
0

> <i_epik_Tot_abs_Q>
0

> <s_lp_Force_Field>
S-OPLS

> <r_lp_Energy>
49.3098

> <b_lp_Chiralities_Consistent>
1

> <s_lp_Variant>
ligprep_h3d.sdf:1359-1

> <ROCS_ShapeQuery>
_7L13

> <ROCS_TanimotoCombo>
0.705 

> <ROCS_ShapeTanimoto>
0.626 

> <ROCS_ColorTanimoto>
0.079 

> <ROCS_RefTversky>
0.773 

> <ROCS_RefColorTversky>
0.176 

> <ROCS_RefTverskyCombo>
0.948 

> <ROCS_FitTversky>
0.768 

> <ROCS_FitColorTversky>
0.126 

> <ROCS_FitTverskyCombo>
0.894 

> <ROCS_ColorScore>
-1.615

> <ROCS_Overlap>
1283.402

> <ROCS_Rank>
479                 

$$$$
ligprep_h3d.sdf:4968_1930
  -OEChem-08212117123D

 64 68  0     1  0  0  0  0  0999 V2000
  -21.8528   -6.5350  -32.5507 C   0  0  0  0  0  0  0  0  0  0  0  0
  -20.7227   -4.8050  -33.8026 C   0  0  0  0  0  0  0  0  0  0  0  0
  -24.8264   -4.6759  -25.3317 C   0  0  0  0  0  0  0  0  0  0  0  0
  -23.3094   -4.4511  -23.4648 C   0  0  0  0  0  0  0  0  0  0  0  0
  -21.1340   -7.5075  -33.2457 C   0  0  0  0  0  0  0  0  0  0  0  0
  -20.0039   -5.7776  -34.4976 C   0  0  0  0  0  0  0  0  0  0  0  0
  -25.9055   -4.7228  -24.4492 C   0  0  0  0  0  0  0  0  0  0  0  0
  -24.3886   -4.4979  -22.5823 C   0  0  0  0  0  0  0  0  0  0  0  0
  -16.5592   -5.7658  -26.2668 C   0  0  0  0  0  0  0  0  0  0  0  0
  -17.5457   -4.4418  -24.5030 C   0  0  0  0  0  0  0  0  0  0  0  0
  -15.5164   -5.6858  -24.0889 C   0  0  0  0  0  0  0  0  0  0  0  0
  -21.6472   -5.1837  -32.8292 C   0  0  0  0  0  0  0  0  0  0  0  0
  -17.5645   -4.9099  -25.8169 C   0  0  0  0  0  0  0  0  0  0  0  0
  -23.5283   -4.5401  -24.8395 C   0  0  0  0  0  0  0  0  0  0  0  0
  -20.2096   -7.1288  -34.2192 C   0  0  0  0  0  0  0  0  0  0  0  0
  -25.6866   -4.6337  -23.0745 C   0  0  0  0  0  0  0  0  0  0  0  0
  -15.5352   -6.1538  -25.4027 C   0  0  0  0  0  0  0  0  0  0  0  0
  -16.5217   -4.8298  -23.6390 C   0  0  0  0  0  0  0  0  0  0  0  0
  -21.4977   -3.2747  -31.2509 C   0  0  0  0  0  0  0  0  0  0  0  0
  -21.7734   -4.9540  -29.3690 C   0  0  0  0  0  0  0  0  0  0  0  0
  -18.8519   -4.8392  -28.0474 C   0  0  0  0  0  0  0  0  0  0  0  0
  -19.5305   -3.4500  -26.6188 C   0  0  0  0  0  0  0  0  0  0  0  0
  -20.3506   -3.0059  -29.0714 C   0  0  0  0  0  0  0  0  0  0  0  0
  -21.4300   -4.8529  -27.8838 C   0  0  1  0  0  0  0  0  0  0  0  0
  -20.1537   -3.9965  -27.9273 C   0  0  0  0  0  0  0  0  0  0  0  0
  -23.2621   -3.2446  -32.9904 C   0  0  0  0  0  0  0  0  0  0  0  0
  -22.5528   -4.1690  -27.1058 C   0  0  0  0  0  0  0  0  0  0  0  0
  -22.4249   -4.1306  -32.0763 C   0  0  1  0  0  0  0  0  0  0  0  0
  -18.5937   -4.5191  -26.6852 N   0  0  0  0  0  0  0  0  0  0  0  0
  -21.2384   -3.7333  -29.9691 N   0  0  0  0  0  0  0  0  0  0  0  0
  -22.4476   -4.4932  -25.7233 N   0  0  0  0  0  0  0  0  0  0  0  0
  -21.0256   -2.2378  -31.7202 O   0  0  0  0  0  0  0  0  0  0  0  0
  -19.5073   -8.0779  -34.8964 O   0  0  0  0  0  0  0  0  0  0  0  0
  -26.7229   -4.6788  -22.2269 F   0  0  0  0  0  0  0  0  0  0  0  0
  -14.5690   -6.9743  -25.8357 F   0  0  0  0  0  0  0  0  0  0  0  0
  -16.5026   -4.3788  -22.3779 F   0  0  0  0  0  0  0  0  0  0  0  0
  -22.5711   -6.8390  -31.7941 H   0  0  0  0  0  0  0  0  0  0  0  0
  -20.5561   -3.7544  -34.0263 H   0  0  0  0  0  0  0  0  0  0  0  0
  -25.0084   -4.7459  -26.4010 H   0  0  0  0  0  0  0  0  0  0  0  0
  -22.3020   -4.3453  -23.0704 H   0  0  0  0  0  0  0  0  0  0  0  0
  -21.2985   -8.5587  -33.0241 H   0  0  0  0  0  0  0  0  0  0  0  0
  -19.2851   -5.4762  -35.2544 H   0  0  0  0  0  0  0  0  0  0  0  0
  -26.9163   -4.8283  -24.8320 H   0  0  0  0  0  0  0  0  0  0  0  0
  -24.2187   -4.4289  -21.5118 H   0  0  0  0  0  0  0  0  0  0  0  0
  -16.5637   -6.1356  -27.2886 H   0  0  0  0  0  0  0  0  0  0  0  0
  -18.3236   -3.7737  -24.1424 H   0  0  0  0  0  0  0  0  0  0  0  0
  -14.7180   -5.9870  -23.4172 H   0  0  0  0  0  0  0  0  0  0  0  0
  -21.2451   -5.7923  -29.8362 H   0  0  0  0  0  0  0  0  0  0  0  0
  -22.8415   -5.0590  -29.5781 H   0  0  0  0  0  0  0  0  0  0  0  0
  -18.9941   -5.9156  -28.2006 H   0  0  0  0  0  0  0  0  0  0  0  0
  -18.0819   -4.4686  -28.7307 H   0  0  0  0  0  0  0  0  0  0  0  0
  -19.0626   -2.4631  -26.6780 H   0  0  0  0  0  0  0  0  0  0  0  0
  -20.1680   -3.5126  -25.7295 H   0  0  0  0  0  0  0  0  0  0  0  0
  -20.8737   -2.0994  -28.7431 H   0  0  0  0  0  0  0  0  0  0  0  0
  -19.4246   -2.7203  -29.5828 H   0  0  0  0  0  0  0  0  0  0  0  0
  -21.2527   -5.8446  -27.4551 H   0  0  0  0  0  0  0  0  0  0  0  0
  -22.6283   -2.7393  -33.7279 H   0  0  0  0  0  0  0  0  0  0  0  0
  -24.0124   -3.8156  -33.5488 H   0  0  0  0  0  0  0  0  0  0  0  0
  -23.7867   -2.4769  -32.4112 H   0  0  0  0  0  0  0  0  0  0  0  0
  -22.4436   -3.0967  -27.2582 H   0  0  0  0  0  0  0  0  0  0  0  0
  -23.4947   -4.5306  -27.5145 H   0  0  0  0  0  0  0  0  0  0  0  0
  -23.0963   -4.6137  -31.3585 H   0  0  0  0  0  0  0  0  0  0  0  0
  -21.5273   -4.7107  -25.3322 H   0  0  0  0  0  0  0  0  0  0  0  0
  -18.9082   -7.6608  -35.5358 H   0  0  0  0  0  0  0  0  0  0  0  0
  1  5  1  0  0  0  0
  1 12  2  0  0  0  0
  2  6  2  0  0  0  0
  2 12  1  0  0  0  0
  3  7  1  0  0  0  0
  3 14  2  0  0  0  0
  4  8  2  0  0  0  0
  4 14  1  0  0  0  0
  5 15  2  0  0  0  0
  6 15  1  0  0  0  0
  7 16  2  0  0  0  0
  8 16  1  0  0  0  0
  9 13  2  0  0  0  0
  9 17  1  0  0  0  0
 10 13  1  0  0  0  0
 10 18  2  0  0  0  0
 11 17  2  0  0  0  0
 11 18  1  0  0  0  0
 12 28  1  0  0  0  0
 13 29  1  0  0  0  0
 14 31  1  0  0  0  0
 15 33  1  0  0  0  0
 16 34  1  0  0  0  0
 17 35  1  0  0  0  0
 18 36  1  0  0  0  0
 19 28  1  0  0  0  0
 19 30  1  0  0  0  0
 19 32  2  0  0  0  0
 20 24  1  0  0  0  0
 20 30  1  0  0  0  0
 21 25  1  0  0  0  0
 21 29  1  0  0  0  0
 22 25  1  0  0  0  0
 22 29  1  0  0  0  0
 23 25  1  0  0  0  0
 23 30  1  0  0  0  0
 24 25  1  0  0  0  0
 24 27  1  0  0  0  0
 26 28  1  0  0  0  0
 27 31  1  0  0  0  0
  1 37  1  0  0  0  0
  2 38  1  0  0  0  0
  3 39  1  0  0  0  0
  4 40  1  0  0  0  0
  5 41  1  0  0  0  0
  6 42  1  0  0  0  0
  7 43  1  0  0  0  0
  8 44  1  0  0  0  0
  9 45  1  0  0  0  0
 10 46  1  0  0  0  0
 11 47  1  0  0  0  0
 20 48  1  0  0  0  0
 20 49  1  0  0  0  0
 21 50  1  0  0  0  0
 21 51  1  0  0  0  0
 22 52  1  0  0  0  0
 22 53  1  0  0  0  0
 23 54  1  0  0  0  0
 23 55  1  0  0  0  0
 24 56  1  0  0  0  0
 26 57  1  0  0  0  0
 26 58  1  0  0  0  0
 26 59  1  0  0  0  0
 27 60  1  0  0  0  0
 27 61  1  0  0  0  0
 28 62  1  0  0  0  0
 31 63  1  0  0  0  0
 33 64  1  0  0  0  0
M  END
> <SMILES>
C[C@H](C(=O)N1CC(CNc2ccc(cc2)F)C2(C1)CN(C2)c1cc(cc(c1)F)F)c1ccc(cc1)O

> <FORMATTED_ID>
H3D-008593

> <MOLFORMULA>
C28H28F3N3O2

> <Exact Mass>
495.21

> <XLogP>
4.55

> <TPSA_NOPS>
55.8

> <s_m_source_file>
ligprep_h3d.sdf

> <i_m_source_file_index>
4968

> <i_lp_mmshare_version>
55123

> <i_f3d_flags>
0

> <s_epik_input>
W2NIXTFbY0hdYyhbT0hdKVtjSF1bY0hdYzFbQ0BIXShbQ0gzXSlDKD1PKU4oW0NIMl0yKVtDSDJdW0NASF0oW0NIMl1bTkhdYzNbY0hdW2NIXWMoRilbY0hdW2NIXTMpQzI0W0NIMl1OKFtDSDJdNCljNVtjSF1jKEYpW2NIXWMoRilbY0hdNQ==

> <s_epik_cmdline>
J2VwaWtfcHl0aG9uJywgJy1waHQnLCAnMC41JywgJy1waCcsICc3LjUnLCAnLXRuJywgJzgnLCAnLW1hJywgJzUwMCcsICctaW1hZScsICc8aW5maWxlLm1hZT4nLCAnLW9tYWUnLCAnPG91dGZpbGUubWFlPic=

> <r_lp_tautomer_probability>
1

> <r_epik_Ionization_Penalty>
0.00482607

> <r_epik_Ionization_Penalty_Charging>
0

> <r_epik_Ionization_Penalty_Neutral>
0.00482607

> <r_epik_State_Penalty>
-0

> <r_epik_Charging_Adjusted_Penalty>
0

> <i_epik_Tot_Q>
0

> <i_epik_Tot_abs_Q>
0

> <s_lp_Force_Field>
S-OPLS

> <r_lp_Energy>
43.8233

> <b_lp_Chiralities_Consistent>
1

> <s_lp_Variant>
ligprep_h3d.sdf:4968-1

> <ROCS_ShapeQuery>
_7L13

> <ROCS_TanimotoCombo>
0.691 

> <ROCS_ShapeTanimoto>
0.634 

> <ROCS_ColorTanimoto>
0.057 

> <ROCS_RefTversky>
0.772 

> <ROCS_RefColorTversky>
0.113 

> <ROCS_RefTverskyCombo>
0.886 

> <ROCS_FitTversky>
0.779 

> <ROCS_FitColorTversky>
0.103 

> <ROCS_FitTverskyCombo>
0.882 

> <ROCS_ColorScore>
-1.025

> <ROCS_Overlap>
1282.184

> <ROCS_Rank>
480                 

$$$$
ligprep_h3d.sdf:657_1953
  -OEChem-08212117123D

 74 78  0     1  0  0  0  0  0999 V2000
  -21.0446   -3.9079  -32.4755 C   0  0  0  0  0  0  0  0  0  0  0  0
  -20.3029   -6.1212  -31.8525 C   0  0  0  0  0  0  0  0  0  0  0  0
  -20.5572   -4.1080  -33.7669 C   0  0  0  0  0  0  0  0  0  0  0  0
  -19.8155   -6.3214  -33.1440 C   0  0  0  0  0  0  0  0  0  0  0  0
  -16.9255   -5.8431  -26.7138 C   0  0  0  0  0  0  0  0  0  0  0  0
  -23.2726   -4.2443  -28.6992 C   0  0  0  0  0  0  0  0  0  0  0  0
  -20.7668   -4.4075  -25.3879 C   0  0  0  0  0  0  0  0  0  0  0  0
  -16.8242   -4.4436  -26.8283 C   0  0  0  0  0  0  0  0  0  0  0  0
  -21.0743   -4.5606  -27.7810 C   0  0  0  0  0  0  0  0  0  0  0  0
  -20.9174   -4.9144  -31.5182 C   0  0  0  0  0  0  0  0  0  0  0  0
  -21.4229   -4.7067  -30.1786 C   0  0  0  0  0  0  0  0  0  0  0  0
  -19.9426   -5.3147  -34.1012 C   0  0  0  0  0  0  0  0  0  0  0  0
  -22.7744   -4.4465  -29.9886 C   0  0  0  0  0  0  0  0  0  0  0  0
  -20.5729   -4.7640  -29.0779 C   0  0  0  0  0  0  0  0  0  0  0  0
  -22.4454   -4.2961  -27.5806 C   0  0  0  0  0  0  0  0  0  0  0  0
  -20.2411   -4.6126  -26.6554 C   0  0  0  0  0  0  0  0  0  0  0  0
  -22.1202   -4.1552  -25.2916 C   0  0  0  0  0  0  0  0  0  0  0  0
  -18.2752   -6.0840  -26.6318 C   0  0  0  0  0  0  0  0  0  0  0  0
  -22.7348   -3.9330  -23.9940 C   0  0  0  0  0  0  0  0  0  0  0  0
  -20.3300   -7.8522  -35.5939 C   0  0  0  0  0  0  0  0  0  0  0  0
  -18.5276   -7.1518  -37.1670 C   0  0  0  0  0  0  0  0  0  0  0  0
  -19.9330   -9.3085  -35.8433 C   0  0  1  0  0  0  0  0  0  0  0  0
  -18.1815   -8.6278  -37.3721 C   0  0  2  0  0  0  0  0  0  0  0  0
  -23.7311   -4.3727  -31.1362 C   0  0  0  0  0  0  0  0  0  0  0  0
  -19.1245   -5.0497  -29.3609 C   0  0  0  0  0  0  0  0  0  0  0  0
  -19.0173   -7.3530  -26.4977 C   0  0  0  0  0  0  0  0  0  0  0  0
  -21.1504  -10.2205  -35.7025 C   0  0  0  0  0  0  0  0  0  0  0  0
  -17.6272   -8.8512  -38.7779 C   0  0  0  0  0  0  0  0  0  0  0  0
  -24.8302   -4.1379  -22.6308 C   0  0  0  0  0  0  0  0  0  0  0  0
  -19.4181   -5.5300  -35.4903 C   0  0  0  0  0  0  0  0  0  0  0  0
  -18.0146   -3.8381  -26.8202 N   0  0  0  0  0  0  0  0  0  0  0  0
  -22.9584   -4.0965  -26.3518 N   0  0  0  0  0  0  0  0  0  0  0  0
  -18.8768   -4.8619  -26.6998 N   0  0  0  0  0  0  0  0  0  0  0  0
  -19.3609   -9.4821  -37.1843 N   0  0  0  0  0  0  0  0  0  0  0  0
  -24.0743   -4.3151  -23.8499 N   0  0  0  0  0  0  0  0  0  0  0  0
  -19.1195   -6.9717  -35.7901 N   0  3  0  0  0  0  0  0  0  0  0  0
  -22.0890   -3.4058  -23.0699 O   0  0  0  0  0  0  0  0  0  0  0  0
  -21.5206   -2.9614  -32.2301 H   0  0  0  0  0  0  0  0  0  0  0  0
  -20.1969   -6.9157  -31.1176 H   0  0  0  0  0  0  0  0  0  0  0  0
  -20.6596   -3.3178  -34.5060 H   0  0  0  0  0  0  0  0  0  0  0  0
  -19.3386   -7.2650  -33.3960 H   0  0  0  0  0  0  0  0  0  0  0  0
  -16.1297   -6.5733  -26.6941 H   0  0  0  0  0  0  0  0  0  0  0  0
  -24.3345   -4.0412  -28.5651 H   0  0  0  0  0  0  0  0  0  0  0  0
  -20.1432   -4.4424  -24.4988 H   0  0  0  0  0  0  0  0  0  0  0  0
  -15.9324   -3.8400  -26.9174 H   0  0  0  0  0  0  0  0  0  0  0  0
  -21.1076   -7.5068  -36.2857 H   0  0  0  0  0  0  0  0  0  0  0  0
  -20.6696   -7.7092  -34.5622 H   0  0  0  0  0  0  0  0  0  0  0  0
  -17.6289   -6.5272  -37.2168 H   0  0  0  0  0  0  0  0  0  0  0  0
  -19.2640   -6.7904  -37.8950 H   0  0  0  0  0  0  0  0  0  0  0  0
  -19.1946   -9.6185  -35.0918 H   0  0  0  0  0  0  0  0  0  0  0  0
  -17.4038   -8.9226  -36.6550 H   0  0  0  0  0  0  0  0  0  0  0  0
  -23.7898   -3.3460  -31.5133 H   0  0  0  0  0  0  0  0  0  0  0  0
  -23.4162   -5.0304  -31.9546 H   0  0  0  0  0  0  0  0  0  0  0  0
  -24.7345   -4.6942  -30.8338 H   0  0  0  0  0  0  0  0  0  0  0  0
  -18.9495   -6.1283  -29.3427 H   0  0  0  0  0  0  0  0  0  0  0  0
  -18.8372   -4.6574  -30.3403 H   0  0  0  0  0  0  0  0  0  0  0  0
  -18.4832   -4.5708  -28.6156 H   0  0  0  0  0  0  0  0  0  0  0  0
  -19.1691   -7.6143  -25.4376 H   0  0  0  0  0  0  0  0  0  0  0  0
  -20.0103   -7.3042  -26.9763 H   0  0  0  0  0  0  0  0  0  0  0  0
  -18.4886   -8.1941  -26.9780 H   0  0  0  0  0  0  0  0  0  0  0  0
  -21.9065   -9.9418  -36.4345 H   0  0  0  0  0  0  0  0  0  0  0  0
  -21.5694  -10.1244  -34.7024 H   0  0  0  0  0  0  0  0  0  0  0  0
  -20.8569  -11.2556  -35.8689 H   0  0  0  0  0  0  0  0  0  0  0  0
  -18.3739   -8.5686  -39.5180 H   0  0  0  0  0  0  0  0  0  0  0  0
  -17.3722   -9.9011  -38.9112 H   0  0  0  0  0  0  0  0  0  0  0  0
  -16.7341   -8.2456  -38.9226 H   0  0  0  0  0  0  0  0  0  0  0  0
  -24.7797   -5.0582  -22.0305 H   0  0  0  0  0  0  0  0  0  0  0  0
  -24.4069   -3.3013  -22.0555 H   0  0  0  0  0  0  0  0  0  0  0  0
  -25.8793   -3.9189  -22.8786 H   0  0  0  0  0  0  0  0  0  0  0  0
  -20.1405   -5.1954  -36.2426 H   0  0  0  0  0  0  0  0  0  0  0  0
  -18.4873   -4.9757  -35.6519 H   0  0  0  0  0  0  0  0  0  0  0  0
  -19.1037  -10.4589  -37.3247 H   0  0  0  0  0  0  0  0  0  0  0  0
  -24.5737   -4.6824  -24.6533 H   0  0  0  0  0  0  0  0  0  0  0  0
  -18.4083   -7.2715  -35.1088 H   0  0  0  0  0  0  0  0  0  0  0  0
  1  3  1  0  0  0  0
  1 10  2  0  0  0  0
  2  4  2  0  0  0  0
  2 10  1  0  0  0  0
  3 12  2  0  0  0  0
  4 12  1  0  0  0  0
  5  8  1  0  0  0  0
  5 18  2  0  0  0  0
  6 13  2  0  0  0  0
  6 15  1  0  0  0  0
  7 16  1  0  0  0  0
  7 17  2  0  0  0  0
  8 31  2  0  0  0  0
  9 14  1  0  0  0  0
  9 15  1  0  0  0  0
  9 16  2  0  0  0  0
 10 11  1  0  0  0  0
 11 13  1  0  0  0  0
 11 14  2  0  0  0  0
 12 30  1  0  0  0  0
 13 24  1  0  0  0  0
 14 25  1  0  0  0  0
 15 32  2  0  0  0  0
 16 33  1  0  0  0  0
 17 19  1  0  0  0  0
 17 32  1  0  0  0  0
 18 26  1  0  0  0  0
 18 33  1  0  0  0  0
 19 35  1  0  0  0  0
 19 37  2  0  0  0  0
 20 22  1  0  0  0  0
 20 36  1  0  0  0  0
 21 23  1  0  0  0  0
 21 36  1  0  0  0  0
 22 27  1  0  0  0  0
 22 34  1  0  0  0  0
 23 28  1  0  0  0  0
 23 34  1  0  0  0  0
 29 35  1  0  0  0  0
 30 36  1  0  0  0  0
 31 33  1  0  0  0  0
  1 38  1  0  0  0  0
  2 39  1  0  0  0  0
  3 40  1  0  0  0  0
  4 41  1  0  0  0  0
  5 42  1  0  0  0  0
  6 43  1  0  0  0  0
  7 44  1  0  0  0  0
  8 45  1  0  0  0  0
 20 46  1  0  0  0  0
 20 47  1  0  0  0  0
 21 48  1  0  0  0  0
 21 49  1  0  0  0  0
 22 50  1  0  0  0  0
 23 51  1  0  0  0  0
 24 52  1  0  0  0  0
 24 53  1  0  0  0  0
 24 54  1  0  0  0  0
 25 55  1  0  0  0  0
 25 56  1  0  0  0  0
 25 57  1  0  0  0  0
 26 58  1  0  0  0  0
 26 59  1  0  0  0  0
 26 60  1  0  0  0  0
 27 61  1  0  0  0  0
 27 62  1  0  0  0  0
 27 63  1  0  0  0  0
 28 64  1  0  0  0  0
 28 65  1  0  0  0  0
 28 66  1  0  0  0  0
 29 67  1  0  0  0  0
 29 68  1  0  0  0  0
 29 69  1  0  0  0  0
 30 70  1  0  0  0  0
 30 71  1  0  0  0  0
 34 72  1  0  0  0  0
 35 73  1  0  0  0  0
 36 74  1  0  0  0  0
M  CHG  1  36   1
M  END
> <SMILES>
CNC(=O)c1cc(c2c(c(c(cc2n1)C)-c1ccc(cc1)CN1C[C@@H](C)N[C@@H](C)C1)C)-n1nccc1C

> <FORMATTED_ID>
H3D-004762

> <MOLFORMULA>
C30H36N6O

> <Exact Mass>
496.3

> <XLogP>
4.54

> <TPSA_NOPS>
75.1

> <s_m_source_file>
ligprep_h3d.sdf

> <i_m_source_file_index>
657

> <i_lp_mmshare_version>
55123

> <i_f3d_flags>
0

> <s_epik_input>
W0NIM11jMVtjSF1bY0hdbm4xLWMyW2NIXWMoQyg9TylbTkhdW0NIM10pbmMoYzIzKVtjSF1jKFtDSDNdKWMoYzNbQ0gzXSktYzRbY0hdW2NIXWMoW2NIXVtjSF00KVtDSDJdTjVbQ0gyXVtDQEBIXShbQ0gzXSlbTkhdW0NAQEhdKFtDSDNdKVtDSDJdNQ==

> <s_epik_cmdline>
J2VwaWtfcHl0aG9uJywgJy1waHQnLCAnMC41JywgJy1waCcsICc3LjUnLCAnLXRuJywgJzgnLCAnLW1hJywgJzUwMCcsICctaW1hZScsICc8aW5maWxlLm1hZT4nLCAnLW9tYWUnLCAnPG91dGZpbGUubWFlPic=

> <r_epik_Ionization_Penalty>
0.0541802

> <r_epik_Ionization_Penalty_Charging>
0.0475483

> <r_epik_Ionization_Penalty_Neutral>
0.00663194

> <r_epik_State_Penalty>
0.452918

> <r_epik_Charging_Adjusted_Penalty>
0.500467

> <i_epik_Tot_Q>
1

> <i_epik_Tot_abs_Q>
1

> <s_lp_Force_Field>
S-OPLS

> <r_lp_Energy>
63.139

> <b_lp_Chiralities_Consistent>
1

> <s_lp_Variant>
ligprep_h3d.sdf:657-2

> <ROCS_ShapeQuery>
_7L13

> <ROCS_TanimotoCombo>
0.719 

> <ROCS_ShapeTanimoto>
0.617 

> <ROCS_ColorTanimoto>
0.102 

> <ROCS_RefTversky>
0.772 

> <ROCS_RefColorTversky>
0.221 

> <ROCS_RefTverskyCombo>
0.993 

> <ROCS_FitTversky>
0.754 

> <ROCS_FitColorTversky>
0.159 

> <ROCS_FitTverskyCombo>
0.913 

> <ROCS_ColorScore>
-2.030

> <ROCS_Overlap>
1284.430

> <ROCS_Rank>
481                 

$$$$
ligprep_h3d.sdf:628_1430
  -OEChem-08212117123D

 63 67  0     1  0  0  0  0  0999 V2000
  -16.6863   -5.5127  -26.2905 C   0  0  0  0  0  0  0  0  0  0  0  0
  -22.8572   -3.8869  -29.0064 C   0  0  0  0  0  0  0  0  0  0  0  0
  -20.7290   -4.5923  -25.5073 C   0  0  0  0  0  0  0  0  0  0  0  0
  -17.2172   -6.6232  -26.9737 C   0  0  0  0  0  0  0  0  0  0  0  0
  -20.8349   -4.6022  -27.9226 C   0  0  0  0  0  0  0  0  0  0  0  0
  -20.9797   -4.5981  -30.3455 C   0  0  0  0  0  0  0  0  0  0  0  0
  -22.2819   -4.1217  -30.2577 C   0  0  0  0  0  0  0  0  0  0  0  0
  -20.2560   -4.8384  -29.1810 C   0  0  0  0  0  0  0  0  0  0  0  0
  -22.1566   -4.1187  -27.8258 C   0  0  0  0  0  0  0  0  0  0  0  0
  -20.1292   -4.8354  -26.7345 C   0  0  0  0  0  0  0  0  0  0  0  0
  -22.0258   -4.1200  -25.5132 C   0  0  0  0  0  0  0  0  0  0  0  0
  -17.7594   -4.6744  -26.1117 C   0  0  0  0  0  0  0  0  0  0  0  0
  -19.6501   -3.8276  -32.4058 C   0  0  0  0  0  0  0  0  0  0  0  0
  -19.1258   -4.0718  -33.6118 C   0  0  0  0  0  0  0  0  0  0  0  0
  -20.5339   -6.0506  -32.2441 C   0  0  0  0  0  0  0  0  0  0  0  0
  -20.3845   -4.8415  -31.6741 C   0  0  0  0  0  0  0  0  0  0  0  0
  -19.2891   -5.4134  -34.2408 C   0  0  0  0  0  0  0  0  0  0  0  0
  -22.7115   -3.8449  -24.2623 C   0  0  0  0  0  0  0  0  0  0  0  0
  -26.3862   -4.0681  -23.3571 C   0  0  0  0  0  0  0  0  0  0  0  0
  -25.2983   -5.9718  -22.2804 C   0  0  0  0  0  0  0  0  0  0  0  0
  -24.9263   -3.7447  -23.0946 C   0  0  1  0  0  0  0  0  0  0  0  0
  -24.5963   -4.6746  -21.9364 C   0  0  2  0  0  0  0  0  0  0  0  0
  -23.1037   -3.8466  -31.4768 C   0  0  0  0  0  0  0  0  0  0  0  0
  -18.8546   -5.3523  -29.3557 C   0  0  0  0  0  0  0  0  0  0  0  0
  -17.8464   -3.3517  -25.4622 C   0  0  0  0  0  0  0  0  0  0  0  0
  -20.2300   -7.6944  -34.0116 C   0  0  0  0  0  0  0  0  0  0  0  0
  -18.5260   -6.5042  -27.2125 N   0  0  0  0  0  0  0  0  0  0  0  0
  -22.7413   -3.8817  -26.6363 N   0  0  0  0  0  0  0  0  0  0  0  0
  -18.8264   -5.3091  -26.6763 N   0  0  0  0  0  0  0  0  0  0  0  0
  -20.0079   -6.3502  -33.4910 N   0  0  0  0  0  0  0  0  0  0  0  0
  -24.1031   -4.0015  -24.2511 N   0  0  0  0  0  0  0  0  0  0  0  0
  -26.4863   -5.5455  -23.0951 N   0  3  0  0  0  0  0  0  0  0  0  0
  -18.7969   -5.6115  -35.3504 O   0  0  0  0  0  0  0  0  0  0  0  0
  -22.0752   -3.4676  -23.2615 O   0  0  0  0  0  0  0  0  0  0  0  0
  -23.2625   -4.8624  -21.8244 F   0  0  0  0  0  0  0  0  0  0  0  0
  -15.6674   -5.3457  -25.9728 H   0  0  0  0  0  0  0  0  0  0  0  0
  -23.8791   -3.5133  -28.9527 H   0  0  0  0  0  0  0  0  0  0  0  0
  -20.2041   -4.7648  -24.5720 H   0  0  0  0  0  0  0  0  0  0  0  0
  -16.7049   -7.5141  -27.3073 H   0  0  0  0  0  0  0  0  0  0  0  0
  -19.5300   -2.8491  -31.9492 H   0  0  0  0  0  0  0  0  0  0  0  0
  -18.5766   -3.3136  -34.1577 H   0  0  0  0  0  0  0  0  0  0  0  0
  -21.0740   -6.8570  -31.7540 H   0  0  0  0  0  0  0  0  0  0  0  0
  -27.0844   -3.5510  -22.6898 H   0  0  0  0  0  0  0  0  0  0  0  0
  -26.6771   -3.9179  -24.4045 H   0  0  0  0  0  0  0  0  0  0  0  0
  -24.6963   -6.6507  -22.8902 H   0  0  0  0  0  0  0  0  0  0  0  0
  -25.6941   -6.4778  -21.3942 H   0  0  0  0  0  0  0  0  0  0  0  0
  -24.8032   -2.7087  -22.8060 H   0  0  0  0  0  0  0  0  0  0  0  0
  -24.9540   -4.2606  -20.9580 H   0  0  0  0  0  0  0  0  0  0  0  0
  -22.9591   -2.8113  -31.8039 H   0  0  0  0  0  0  0  0  0  0  0  0
  -22.8263   -4.5169  -32.2985 H   0  0  0  0  0  0  0  0  0  0  0  0
  -24.1698   -4.0068  -31.2777 H   0  0  0  0  0  0  0  0  0  0  0  0
  -18.8610   -6.4450  -29.3792 H   0  0  0  0  0  0  0  0  0  0  0  0
  -18.4180   -4.9775  -30.2856 H   0  0  0  0  0  0  0  0  0  0  0  0
  -18.2142   -5.0163  -28.5351 H   0  0  0  0  0  0  0  0  0  0  0  0
  -17.6642   -2.5408  -26.1863 H   0  0  0  0  0  0  0  0  0  0  0  0
  -18.8365   -3.1785  -25.0071 H   0  0  0  0  0  0  0  0  0  0  0  0
  -17.1124   -3.2429  -24.6454 H   0  0  0  0  0  0  0  0  0  0  0  0
  -21.1653   -7.7141  -34.5902 H   0  0  0  0  0  0  0  0  0  0  0  0
  -19.3902   -7.9787  -34.6626 H   0  0  0  0  0  0  0  0  0  0  0  0
  -20.3018   -8.4044  -33.1745 H   0  0  0  0  0  0  0  0  0  0  0  0
  -24.5804   -4.2503  -25.1113 H   0  0  0  0  0  0  0  0  0  0  0  0
  -27.3564   -5.7602  -22.5883 H   0  0  0  0  0  0  0  0  0  0  0  0
  -26.5315   -6.0638  -23.9834 H   0  0  0  0  0  0  0  0  0  0  0  0
  1  4  1  0  0  0  0
  1 12  2  0  0  0  0
  2  7  1  0  0  0  0
  2  9  2  0  0  0  0
  3 10  2  0  0  0  0
  3 11  1  0  0  0  0
  4 27  2  0  0  0  0
  5  8  2  0  0  0  0
  5  9  1  0  0  0  0
  5 10  1  0  0  0  0
  6  7  2  0  0  0  0
  6  8  1  0  0  0  0
  6 16  1  0  0  0  0
  7 23  1  0  0  0  0
  8 24  1  0  0  0  0
  9 28  1  0  0  0  0
 10 29  1  0  0  0  0
 11 18  1  0  0  0  0
 11 28  2  0  0  0  0
 12 25  1  0  0  0  0
 12 29  1  0  0  0  0
 13 14  2  0  0  0  0
 13 16  1  0  0  0  0
 14 17  1  0  0  0  0
 15 16  2  0  0  0  0
 15 30  1  0  0  0  0
 17 30  1  0  0  0  0
 17 33  2  0  0  0  0
 18 31  1  0  0  0  0
 18 34  2  0  0  0  0
 19 21  1  0  0  0  0
 19 32  1  0  0  0  0
 20 22  1  0  0  0  0
 20 32  1  0  0  0  0
 21 22  1  0  0  0  0
 21 31  1  0  0  0  0
 22 35  1  0  0  0  0
 26 30  1  0  0  0  0
 27 29  1  0  0  0  0
  1 36  1  0  0  0  0
  2 37  1  0  0  0  0
  3 38  1  0  0  0  0
  4 39  1  0  0  0  0
 13 40  1  0  0  0  0
 14 41  1  0  0  0  0
 15 42  1  0  0  0  0
 19 43  1  0  0  0  0
 19 44  1  0  0  0  0
 20 45  1  0  0  0  0
 20 46  1  0  0  0  0
 21 47  1  0  0  0  0
 22 48  1  0  0  0  0
 23 49  1  0  0  0  0
 23 50  1  0  0  0  0
 23 51  1  0  0  0  0
 24 52  1  0  0  0  0
 24 53  1  0  0  0  0
 24 54  1  0  0  0  0
 25 55  1  0  0  0  0
 25 56  1  0  0  0  0
 25 57  1  0  0  0  0
 26 58  1  0  0  0  0
 26 59  1  0  0  0  0
 26 60  1  0  0  0  0
 31 61  1  0  0  0  0
 32 62  1  0  0  0  0
 32 63  1  0  0  0  0
M  CHG  1  32   1
M  END
> <SMILES>
CN1C=C(C=CC1=O)c1c(cc2nc(cc(c2c1C)-n1nccc1C)C(=O)N[C@H]1CNC[C@H]1F)C

> <FORMATTED_ID>
H3D-004545

> <MOLFORMULA>
C26H27FN6O2

> <Exact Mass>
474.22

> <XLogP>
2.25

> <TPSA_NOPS>
92.1

> <s_m_source_file>
ligprep_h3d.sdf

> <i_m_source_file_index>
628

> <i_lp_mmshare_version>
55123

> <i_f3d_flags>
0

> <s_epik_input>
Tz1jMVtjSF1bY0hdYyhbY0hdbjFbQ0gzXSktYyhjKFtjSF0yKVtDSDNdKWMoW0NIM10pYyhjMjMpYygtbjRuW2NIXVtjSF1jNFtDSDNdKVtjSF1jKG4zKUMoPU8pW05IXVtDQEhdNVtDSDJdW05IXVtDSDJdW0NASF01Rg==

> <s_epik_cmdline>
J2VwaWtfcHl0aG9uJywgJy1waHQnLCAnMC41JywgJy1waCcsICc3LjUnLCAnLXRuJywgJzgnLCAnLW1hJywgJzUwMCcsICctaW1hZScsICc8aW5maWxlLm1hZT4nLCAnLW9tYWUnLCAnPG91dGZpbGUubWFlPic=

> <r_lp_tautomer_probability>
1

> <r_epik_Ionization_Penalty>
0.0139962

> <r_epik_Ionization_Penalty_Charging>
0.0139026

> <r_epik_Ionization_Penalty_Neutral>
9.36278e-05

> <r_epik_State_Penalty>
0.0108452

> <r_epik_Charging_Adjusted_Penalty>
0.0247478

> <i_epik_Tot_Q>
1

> <i_epik_Tot_abs_Q>
1

> <s_lp_Force_Field>
S-OPLS

> <r_lp_Energy>
85.1942

> <b_lp_Chiralities_Consistent>
1

> <s_lp_Variant>
ligprep_h3d.sdf:628-1

> <ROCS_ShapeQuery>
_7L13

> <ROCS_TanimotoCombo>
0.743 

> <ROCS_ShapeTanimoto>
0.634 

> <ROCS_ColorTanimoto>
0.109 

> <ROCS_RefTversky>
0.772 

> <ROCS_RefColorTversky>
0.226 

> <ROCS_RefTverskyCombo>
0.998 

> <ROCS_FitTversky>
0.780 

> <ROCS_FitColorTversky>
0.174 

> <ROCS_FitTverskyCombo>
0.954 

> <ROCS_ColorScore>
-2.064

> <ROCS_Overlap>
1281.938

> <ROCS_Rank>
482                 

$$$$
ligprep_h3d.sdf:5781_1704
  -OEChem-08212117123D

 62 66  0     0  0  0  0  0  0999 V2000
  -21.3185   -7.5804  -25.0499 C   0  0  0  0  0  0  0  0  0  0  0  0
  -20.3746   -6.9455  -24.2428 C   0  0  0  0  0  0  0  0  0  0  0  0
  -21.6803   -7.0184  -26.2743 C   0  0  0  0  0  0  0  0  0  0  0  0
  -24.1864   -4.6986  -26.3814 C   0  0  0  0  0  0  0  0  0  0  0  0
  -23.1518   -3.3833  -24.6389 C   0  0  0  0  0  0  0  0  0  0  0  0
  -25.0270   -5.2882  -25.4373 C   0  0  0  0  0  0  0  0  0  0  0  0
  -23.9924   -3.9728  -23.6947 C   0  0  0  0  0  0  0  0  0  0  0  0
  -20.5746   -7.2310  -34.1257 C   0  0  0  0  0  0  0  0  0  0  0  0
  -20.0192   -4.8951  -33.8572 C   0  0  0  0  0  0  0  0  0  0  0  0
  -19.7925   -5.7485  -24.6600 C   0  0  0  0  0  0  0  0  0  0  0  0
  -19.6741   -7.3231  -35.1869 C   0  0  0  0  0  0  0  0  0  0  0  0
  -19.1186   -4.9872  -34.9184 C   0  0  0  0  0  0  0  0  0  0  0  0
  -22.8780   -2.6288  -30.0122 C   0  0  0  0  0  0  0  0  0  0  0  0
  -21.3780   -5.8010  -29.2220 C   0  0  0  0  0  0  0  0  0  0  0  0
  -22.9949   -2.6957  -31.3872 C   0  0  0  0  0  0  0  0  0  0  0  0
  -21.8985   -4.8586  -30.1567 C   0  0  0  0  0  0  0  0  0  0  0  0
  -21.0982   -5.8214  -26.6914 C   0  0  0  0  0  0  0  0  0  0  0  0
  -23.2487   -3.7462  -25.9822 C   0  0  0  0  0  0  0  0  0  0  0  0
  -24.9300   -4.9253  -24.0939 C   0  0  0  0  0  0  0  0  0  0  0  0
  -22.3140   -3.7505  -29.4182 C   0  0  0  0  0  0  0  0  0  0  0  0
  -20.7472   -6.0169  -33.4608 C   0  0  0  0  0  0  0  0  0  0  0  0
  -18.9461   -6.2013  -35.5833 C   0  0  0  0  0  0  0  0  0  0  0  0
  -20.1543   -5.1864  -25.8843 C   0  0  0  0  0  0  0  0  0  0  0  0
  -21.4869   -5.2554  -27.9640 C   0  0  0  0  0  0  0  0  0  0  0  0
  -22.0412   -4.8711  -31.5436 C   0  0  0  0  0  0  0  0  0  0  0  0
  -17.9403   -7.5624  -37.2541 C   0  0  0  0  0  0  0  0  0  0  0  0
  -18.3641   -4.1106  -27.0217 C   0  0  0  0  0  0  0  0  0  0  0  0
  -22.3418   -3.1093  -27.0002 C   0  0  0  0  0  0  0  0  0  0  0  0
  -25.8303   -5.5549  -23.0852 C   0  0  0  0  0  0  0  0  0  0  0  0
  -22.0536   -4.0168  -28.0932 N   0  0  0  0  0  0  0  0  0  0  0  0
  -22.5879   -3.7710  -32.0675 N   0  3  0  0  0  0  0  0  0  0  0  0
  -21.6615   -5.9234  -32.3834 N   0  0  0  0  0  0  0  0  0  0  0  0
  -18.0674   -6.2912  -36.6188 O   0  0  0  0  0  0  0  0  0  0  0  0
  -19.5696   -4.0152  -26.2668 O   0  0  0  0  0  0  0  0  0  0  0  0
  -26.6968   -6.4666  -23.6181 F   0  0  0  0  0  0  0  0  0  0  0  0
  -25.1632   -6.2299  -22.1028 F   0  0  0  0  0  0  0  0  0  0  0  0
  -26.6117   -4.6428  -22.4369 F   0  0  0  0  0  0  0  0  0  0  0  0
  -21.7725   -8.5121  -24.7246 H   0  0  0  0  0  0  0  0  0  0  0  0
  -20.0925   -7.3834  -23.2898 H   0  0  0  0  0  0  0  0  0  0  0  0
  -22.4171   -7.5269  -26.8912 H   0  0  0  0  0  0  0  0  0  0  0  0
  -24.2689   -4.9877  -27.4259 H   0  0  0  0  0  0  0  0  0  0  0  0
  -22.4249   -2.6410  -24.3195 H   0  0  0  0  0  0  0  0  0  0  0  0
  -25.7556   -6.0280  -25.7578 H   0  0  0  0  0  0  0  0  0  0  0  0
  -23.9103   -3.6844  -22.6501 H   0  0  0  0  0  0  0  0  0  0  0  0
  -21.1367   -8.1115  -33.8251 H   0  0  0  0  0  0  0  0  0  0  0  0
  -20.1458   -3.9441  -33.3460 H   0  0  0  0  0  0  0  0  0  0  0  0
  -19.0576   -5.2594  -24.0265 H   0  0  0  0  0  0  0  0  0  0  0  0
  -19.5440   -8.2716  -35.7010 H   0  0  0  0  0  0  0  0  0  0  0  0
  -18.5543   -4.1098  -35.2226 H   0  0  0  0  0  0  0  0  0  0  0  0
  -23.2036   -1.7640  -29.4483 H   0  0  0  0  0  0  0  0  0  0  0  0
  -20.9677   -6.7757  -29.4527 H   0  0  0  0  0  0  0  0  0  0  0  0
  -23.4150   -1.8971  -31.9846 H   0  0  0  0  0  0  0  0  0  0  0  0
  -17.2080   -7.4951  -38.0623 H   0  0  0  0  0  0  0  0  0  0  0  0
  -18.9105   -7.8705  -37.6518 H   0  0  0  0  0  0  0  0  0  0  0  0
  -17.6011   -8.2952  -36.5181 H   0  0  0  0  0  0  0  0  0  0  0  0
  -18.0032   -3.1075  -27.2616 H   0  0  0  0  0  0  0  0  0  0  0  0
  -18.5522   -4.6712  -27.9409 H   0  0  0  0  0  0  0  0  0  0  0  0
  -17.6120   -4.6332  -26.4260 H   0  0  0  0  0  0  0  0  0  0  0  0
  -22.7919   -2.2007  -27.4182 H   0  0  0  0  0  0  0  0  0  0  0  0
  -21.3902   -2.8050  -26.5476 H   0  0  0  0  0  0  0  0  0  0  0  0
  -22.7042   -3.7531  -33.0810 H   0  0  0  0  0  0  0  0  0  0  0  0
  -22.1332   -6.8067  -32.1868 H   0  0  0  0  0  0  0  0  0  0  0  0
  1  2  2  0  0  0  0
  1  3  1  0  0  0  0
  2 10  1  0  0  0  0
  3 17  2  0  0  0  0
  4  6  1  0  0  0  0
  4 18  2  0  0  0  0
  5  7  2  0  0  0  0
  5 18  1  0  0  0  0
  6 19  2  0  0  0  0
  7 19  1  0  0  0  0
  8 11  1  0  0  0  0
  8 21  2  0  0  0  0
  9 12  2  0  0  0  0
  9 21  1  0  0  0  0
 10 23  2  0  0  0  0
 11 22  2  0  0  0  0
 12 22  1  0  0  0  0
 13 15  1  0  0  0  0
 13 20  2  0  0  0  0
 14 16  1  0  0  0  0
 14 24  2  0  0  0  0
 15 31  2  0  0  0  0
 16 20  1  0  0  0  0
 16 25  2  0  0  0  0
 17 23  1  0  0  0  0
 17 24  1  0  0  0  0
 18 28  1  0  0  0  0
 19 29  1  0  0  0  0
 20 30  1  0  0  0  0
 21 32  1  0  0  0  0
 22 33  1  0  0  0  0
 23 34  1  0  0  0  0
 24 30  1  0  0  0  0
 25 31  1  0  0  0  0
 25 32  1  0  0  0  0
 26 33  1  0  0  0  0
 27 34  1  0  0  0  0
 28 30  1  0  0  0  0
 29 35  1  0  0  0  0
 29 36  1  0  0  0  0
 29 37  1  0  0  0  0
  1 38  1  0  0  0  0
  2 39  1  0  0  0  0
  3 40  1  0  0  0  0
  4 41  1  0  0  0  0
  5 42  1  0  0  0  0
  6 43  1  0  0  0  0
  7 44  1  0  0  0  0
  8 45  1  0  0  0  0
  9 46  1  0  0  0  0
 10 47  1  0  0  0  0
 11 48  1  0  0  0  0
 12 49  1  0  0  0  0
 13 50  1  0  0  0  0
 14 51  1  0  0  0  0
 15 52  1  0  0  0  0
 26 53  1  0  0  0  0
 26 54  1  0  0  0  0
 26 55  1  0  0  0  0
 27 56  1  0  0  0  0
 27 57  1  0  0  0  0
 27 58  1  0  0  0  0
 28 59  1  0  0  0  0
 28 60  1  0  0  0  0
 31 61  1  0  0  0  0
 32 62  1  0  0  0  0
M  CHG  1  31   1
M  END
> <SMILES>
COc1ccc(cc1)Nc1nccc2n(c(cc12)-c1ccccc1OC)Cc1ccc(cc1)C(F)(F)F

> <FORMATTED_ID>
H3D-000087

> <MOLFORMULA>
C29H24F3N3O2

> <Exact Mass>
503.18

> <XLogP>
8

> <TPSA_NOPS>
48.3

> <s_m_source_file>
ligprep_h3d.sdf

> <i_m_source_file_index>
5781

> <i_lp_mmshare_version>
55123

> <i_f3d_flags>
0

> <s_epik_input>
W0NIM11PYzFbY0hdW2NIXWMoW2NIXVtjSF0xKVtOSF1jKG5bY0hdW2NIXTIpYyhjMjMpW2NIXWMobjNbQ0gyXWM0W2NIXVtjSF1jKEMoRikoRilGKVtjSF1bY0hdNCktYzVbY0hdW2NIXVtjSF1bY0hdYzVPW0NIM10=

> <s_epik_cmdline>
J2VwaWtfcHl0aG9uJywgJy1waHQnLCAnMC41JywgJy1waCcsICc3LjUnLCAnLXRuJywgJzgnLCAnLW1hJywgJzUwMCcsICctaW1hZScsICc8aW5maWxlLm1hZT4nLCAnLW9tYWUnLCAnPG91dGZpbGUubWFlPic=

> <r_lp_tautomer_probability>
1

> <r_epik_Ionization_Penalty>
0.0792793

> <r_epik_Ionization_Penalty_Charging>
0.0789392

> <r_epik_Ionization_Penalty_Neutral>
0.000340114

> <r_epik_State_Penalty>
0.0698142

> <r_epik_Charging_Adjusted_Penalty>
0.148753

> <i_epik_Tot_Q>
1

> <i_epik_Tot_abs_Q>
1

> <s_lp_Force_Field>
S-OPLS

> <r_lp_Energy>
62.6548

> <b_lp_Chiralities_Consistent>
1

> <s_lp_Variant>
ligprep_h3d.sdf:5781-1

> <ROCS_ShapeQuery>
_7L13

> <ROCS_TanimotoCombo>
0.676 

> <ROCS_ShapeTanimoto>
0.610 

> <ROCS_ColorTanimoto>
0.066 

> <ROCS_RefTversky>
0.772 

> <ROCS_RefColorTversky>
0.130 

> <ROCS_RefTverskyCombo>
0.902 

> <ROCS_FitTversky>
0.743 

> <ROCS_FitColorTversky>
0.118 

> <ROCS_FitTverskyCombo>
0.861 

> <ROCS_ColorScore>
-1.176

> <ROCS_Overlap>
1285.382

> <ROCS_Rank>
483                 

$$$$
ligprep_h3d.sdf:2996_1369
  -OEChem-08212117123D

 67 72  0     0  0  0  0  0  0999 V2000
  -18.9184   -5.0827  -35.2954 C   0  0  0  0  0  0  0  0  0  0  0  0
  -21.6373   -3.4901  -23.6707 C   0  0  0  0  0  0  0  0  0  0  0  0
  -17.0590   -4.2917  -25.7058 C   0  0  0  0  0  0  0  0  0  0  0  0
  -17.9727   -6.0357  -27.1060 C   0  0  0  0  0  0  0  0  0  0  0  0
  -20.6493   -3.4663  -24.6607 C   0  0  0  0  0  0  0  0  0  0  0  0
  -16.1672   -5.2074  -25.1473 C   0  0  0  0  0  0  0  0  0  0  0  0
  -17.0809   -6.9513  -26.5476 C   0  0  0  0  0  0  0  0  0  0  0  0
  -18.2871   -4.8511  -36.5193 C   0  0  0  0  0  0  0  0  0  0  0  0
  -20.6522   -7.8854  -33.5673 C   0  0  0  0  0  0  0  0  0  0  0  0
  -23.2334   -4.5319  -25.1855 C   0  0  0  0  0  0  0  0  0  0  0  0
  -18.7508   -7.1224  -37.2035 C   0  0  0  0  0  0  0  0  0  0  0  0
  -20.5349   -8.8501  -34.5541 C   0  0  0  0  0  0  0  0  0  0  0  0
  -19.4750   -6.3393  -35.0095 C   0  0  0  0  0  0  0  0  0  0  0  0
  -22.9070   -4.0130  -23.9262 C   0  0  0  0  0  0  0  0  0  0  0  0
  -17.9618   -4.7059  -26.6851 C   0  0  0  0  0  0  0  0  0  0  0  0
  -22.2531   -4.5159  -26.1920 C   0  0  0  0  0  0  0  0  0  0  0  0
  -20.9968   -3.9883  -25.9070 C   0  0  0  0  0  0  0  0  0  0  0  0
  -19.3844   -7.3616  -35.9801 C   0  0  0  0  0  0  0  0  0  0  0  0
  -20.1186   -6.6221  -33.7972 C   0  0  0  0  0  0  0  0  0  0  0  0
  -16.1781   -6.5371  -25.5683 C   0  0  0  0  0  0  0  0  0  0  0  0
  -18.2038   -5.8679  -37.4700 C   0  0  0  0  0  0  0  0  0  0  0  0
  -21.1263   -4.7062  -27.9957 C   0  0  0  0  0  0  0  0  0  0  0  0
  -23.9071   -4.0197  -22.8695 C   0  0  0  0  0  0  0  0  0  0  0  0
  -19.3976   -6.5382  -30.6614 C   0  0  0  0  0  0  0  0  0  0  0  0
  -19.3671   -4.0719  -31.1605 C   0  0  0  0  0  0  0  0  0  0  0  0
  -20.6343   -6.3268  -29.7875 C   0  0  0  0  0  0  0  0  0  0  0  0
  -20.6052   -3.8932  -30.2783 C   0  0  0  0  0  0  0  0  0  0  0  0
  -19.2666   -5.4769  -31.7574 C   0  0  0  0  0  0  0  0  0  0  0  0
  -26.1532   -4.6270  -22.3443 C   0  0  0  0  0  0  0  0  0  0  0  0
  -18.9237   -3.7184  -27.2885 C   0  0  0  0  0  0  0  0  0  0  0  0
  -22.3147   -4.9569  -27.4939 N   0  0  0  0  0  0  0  0  0  0  0  0
  -20.2969   -4.1230  -27.0786 N   0  0  0  0  0  0  0  0  0  0  0  0
  -19.9173   -8.5680  -35.7089 N   0  3  0  0  0  0  0  0  0  0  0  0
  -20.6630   -4.9543  -29.2685 N   0  0  0  0  0  0  0  0  0  0  0  0
  -20.2434   -5.6695  -32.8038 N   0  0  0  0  0  0  0  0  0  0  0  0
  -23.7190   -3.5860  -21.7255 O   0  0  0  0  0  0  0  0  0  0  0  0
  -25.0864   -4.5652  -23.2971 O   0  0  0  0  0  0  0  0  0  0  0  0
  -15.3199   -7.4160  -25.0340 F   0  0  0  0  0  0  0  0  0  0  0  0
  -17.4237   -5.5731  -38.9758 Cl  0  0  0  0  0  0  0  0  0  0  0  0
  -18.9639   -4.2655  -34.5796 H   0  0  0  0  0  0  0  0  0  0  0  0
  -21.4004   -3.0897  -22.6870 H   0  0  0  0  0  0  0  0  0  0  0  0
  -17.0435   -3.2579  -25.3708 H   0  0  0  0  0  0  0  0  0  0  0  0
  -18.6724   -6.3674  -27.8688 H   0  0  0  0  0  0  0  0  0  0  0  0
  -19.6635   -3.0621  -24.4605 H   0  0  0  0  0  0  0  0  0  0  0  0
  -15.4639   -4.8850  -24.3854 H   0  0  0  0  0  0  0  0  0  0  0  0
  -17.0893   -7.9868  -26.8748 H   0  0  0  0  0  0  0  0  0  0  0  0
  -17.8631   -3.8698  -36.7175 H   0  0  0  0  0  0  0  0  0  0  0  0
  -21.1546   -8.1241  -32.6348 H   0  0  0  0  0  0  0  0  0  0  0  0
  -24.2200   -4.9393  -25.3857 H   0  0  0  0  0  0  0  0  0  0  0  0
  -18.6875   -7.9175  -37.9429 H   0  0  0  0  0  0  0  0  0  0  0  0
  -20.9201   -9.8561  -34.4583 H   0  0  0  0  0  0  0  0  0  0  0  0
  -18.5039   -6.5025  -30.0243 H   0  0  0  0  0  0  0  0  0  0  0  0
  -19.4198   -7.5431  -31.1004 H   0  0  0  0  0  0  0  0  0  0  0  0
  -19.3662   -3.3160  -31.9554 H   0  0  0  0  0  0  0  0  0  0  0  0
  -18.4716   -3.8788  -30.5549 H   0  0  0  0  0  0  0  0  0  0  0  0
  -21.5489   -6.5255  -30.3599 H   0  0  0  0  0  0  0  0  0  0  0  0
  -20.6052   -7.0484  -28.9612 H   0  0  0  0  0  0  0  0  0  0  0  0
  -20.5524   -2.9078  -29.7981 H   0  0  0  0  0  0  0  0  0  0  0  0
  -21.5176   -3.9099  -30.8873 H   0  0  0  0  0  0  0  0  0  0  0  0
  -18.2600   -5.5827  -32.2241 H   0  0  0  0  0  0  0  0  0  0  0  0
  -27.0320   -5.0806  -22.8091 H   0  0  0  0  0  0  0  0  0  0  0  0
  -26.3913   -3.6185  -21.9967 H   0  0  0  0  0  0  0  0  0  0  0  0
  -25.8367   -5.2376  -21.4954 H   0  0  0  0  0  0  0  0  0  0  0  0
  -18.7901   -2.7199  -26.8550 H   0  0  0  0  0  0  0  0  0  0  0  0
  -18.7586   -3.6134  -28.3678 H   0  0  0  0  0  0  0  0  0  0  0  0
  -19.8520   -9.3065  -36.4099 H   0  0  0  0  0  0  0  0  0  0  0  0
  -21.0592   -5.0728  -32.8015 H   0  0  0  0  0  0  0  0  0  0  0  0
  1  8  1  0  0  0  0
  1 13  2  0  0  0  0
  2  5  2  0  0  0  0
  2 14  1  0  0  0  0
  3  6  1  0  0  0  0
  3 15  2  0  0  0  0
  4  7  2  0  0  0  0
  4 15  1  0  0  0  0
  5 17  1  0  0  0  0
  6 20  2  0  0  0  0
  7 20  1  0  0  0  0
  8 21  2  0  0  0  0
  9 12  1  0  0  0  0
  9 19  2  0  0  0  0
 10 14  2  0  0  0  0
 10 16  1  0  0  0  0
 11 18  2  0  0  0  0
 11 21  1  0  0  0  0
 12 33  2  0  0  0  0
 13 18  1  0  0  0  0
 13 19  1  0  0  0  0
 14 23  1  0  0  0  0
 15 30  1  0  0  0  0
 16 17  2  0  0  0  0
 16 31  1  0  0  0  0
 17 32  1  0  0  0  0
 18 33  1  0  0  0  0
 19 35  1  0  0  0  0
 20 38  1  0  0  0  0
 21 39  1  0  0  0  0
 22 31  2  0  0  0  0
 22 32  1  0  0  0  0
 22 34  1  0  0  0  0
 23 36  2  0  0  0  0
 23 37  1  0  0  0  0
 24 26  1  0  0  0  0
 24 28  1  0  0  0  0
 25 27  1  0  0  0  0
 25 28  1  0  0  0  0
 26 34  1  0  0  0  0
 27 34  1  0  0  0  0
 28 35  1  0  0  0  0
 29 37  1  0  0  0  0
 30 32  1  0  0  0  0
  1 40  1  0  0  0  0
  2 41  1  0  0  0  0
  3 42  1  0  0  0  0
  4 43  1  0  0  0  0
  5 44  1  0  0  0  0
  6 45  1  0  0  0  0
  7 46  1  0  0  0  0
  8 47  1  0  0  0  0
  9 48  1  0  0  0  0
 10 49  1  0  0  0  0
 11 50  1  0  0  0  0
 12 51  1  0  0  0  0
 24 52  1  0  0  0  0
 24 53  1  0  0  0  0
 25 54  1  0  0  0  0
 25 55  1  0  0  0  0
 26 56  1  0  0  0  0
 26 57  1  0  0  0  0
 27 58  1  0  0  0  0
 27 59  1  0  0  0  0
 28 60  1  0  0  0  0
 29 61  1  0  0  0  0
 29 62  1  0  0  0  0
 29 63  1  0  0  0  0
 30 64  1  0  0  0  0
 30 65  1  0  0  0  0
 33 66  1  0  0  0  0
 35 67  1  0  0  0  0
M  CHG  1  33   1
M  END
> <SMILES>
COC(=O)c1ccc2n(c(nc2c1)N1CCC(CC1)Nc1ccnc2cc(ccc12)Cl)Cc1ccc(cc1)F

> <FORMATTED_ID>
H3D-014797

> <MOLFORMULA>
C30H27ClFN5O2

> <Exact Mass>
543.18

> <XLogP>
7.33

> <TPSA_NOPS>
72.3

> <s_m_source_file>
ligprep_h3d.sdf

> <i_m_source_file_index>
2996

> <i_lp_mmshare_version>
55123

> <i_f3d_flags>
0

> <s_epik_input>
W2NIXTFbY0hdYyhGKVtjSF1bY0hdYzFbQ0gyXW4yYyhuYyhjMjMpW2NIXWMoW2NIXVtjSF0zKUMoPU8pT1tDSDNdKU40W0NIMl1bQ0gyXVtDSF0oW0NIMl1bQ0gyXTQpW05IXWMoW2NIXVtjSF1uNSljKGM1NilbY0hdW2NIXWMoQ2wpW2NIXTY=

> <s_epik_cmdline>
J2VwaWtfcHl0aG9uJywgJy1waHQnLCAnMC41JywgJy1waCcsICc3LjUnLCAnLXRuJywgJzgnLCAnLW1hJywgJzUwMCcsICctaW1hZScsICc8aW5maWxlLm1hZT4nLCAnLW9tYWUnLCAnPG91dGZpbGUubWFlPic=

> <r_epik_Ionization_Penalty>
0.211003

> <r_epik_Ionization_Penalty_Charging>
0.0608706

> <r_epik_Ionization_Penalty_Neutral>
0.150132

> <r_epik_State_Penalty>
0.192207

> <r_epik_Charging_Adjusted_Penalty>
0.253078

> <i_epik_Tot_Q>
1

> <i_epik_Tot_abs_Q>
1

> <s_epik_Chemistry_Notes>
This compound has an ester and may undergo hydrolysis at high or low pH.

> <s_lp_Force_Field>
S-OPLS

> <r_lp_Energy>
54.6334

> <b_lp_Chiralities_Consistent>
1

> <s_lp_Variant>
ligprep_h3d.sdf:2996-1

> <ROCS_ShapeQuery>
_7L13

> <ROCS_TanimotoCombo>
0.643 

> <ROCS_ShapeTanimoto>
0.589 

> <ROCS_ColorTanimoto>
0.054 

> <ROCS_RefTversky>
0.772 

> <ROCS_RefColorTversky>
0.113 

> <ROCS_RefTverskyCombo>
0.885 

> <ROCS_FitTversky>
0.712 

> <ROCS_FitColorTversky>
0.094 

> <ROCS_FitTverskyCombo>
0.806 

> <ROCS_ColorScore>
-1.024

> <ROCS_Overlap>
1288.540

> <ROCS_Rank>
484                 

$$$$
ligprep_h3d.sdf:4939_1035
  -OEChem-08212117123D

 63 67  0     1  0  0  0  0  0999 V2000
  -19.1594   -5.0549  -33.1762 C   0  0  0  0  0  0  0  0  0  0  0  0
  -21.3066   -5.6113  -34.1338 C   0  0  0  0  0  0  0  0  0  0  0  0
  -24.9007   -4.8053  -25.2245 C   0  0  0  0  0  0  0  0  0  0  0  0
  -23.6344   -3.7771  -23.4423 C   0  0  0  0  0  0  0  0  0  0  0  0
  -18.5272   -5.8518  -34.1306 C   0  0  0  0  0  0  0  0  0  0  0  0
  -20.6744   -6.4081  -35.0883 C   0  0  0  0  0  0  0  0  0  0  0  0
  -25.7960   -5.3241  -24.2891 C   0  0  0  0  0  0  0  0  0  0  0  0
  -24.5298   -4.2957  -22.5069 C   0  0  0  0  0  0  0  0  0  0  0  0
  -16.9456   -6.0801  -26.4071 C   0  0  0  0  0  0  0  0  0  0  0  0
  -16.9935   -3.7182  -25.9012 C   0  0  0  0  0  0  0  0  0  0  0  0
  -15.0444   -5.0333  -25.3456 C   0  0  0  0  0  0  0  0  0  0  0  0
  -20.5491   -4.9347  -33.1777 C   0  0  0  0  0  0  0  0  0  0  0  0
  -17.6113   -4.8544  -26.4236 C   0  0  0  0  0  0  0  0  0  0  0  0
  -23.8198   -4.0319  -24.8011 C   0  0  0  0  0  0  0  0  0  0  0  0
  -19.2847   -6.5284  -35.0867 C   0  0  0  0  0  0  0  0  0  0  0  0
  -25.6106   -5.0692  -22.9303 C   0  0  0  0  0  0  0  0  0  0  0  0
  -15.6622   -6.1695  -25.8681 C   0  0  0  0  0  0  0  0  0  0  0  0
  -15.7101   -3.8076  -25.3621 C   0  0  0  0  0  0  0  0  0  0  0  0
  -22.1700   -4.8299  -31.2357 C   0  0  0  0  0  0  0  0  0  0  0  0
  -22.6711   -5.4911  -28.8982 C   0  0  0  0  0  0  0  0  0  0  0  0
  -19.7496   -5.7438  -27.5548 C   0  0  0  0  0  0  0  0  0  0  0  0
  -19.9240   -3.7855  -26.8130 C   0  0  0  0  0  0  0  0  0  0  0  0
  -20.7176   -4.0996  -29.2910 C   0  0  0  0  0  0  0  0  0  0  0  0
  -22.2164   -4.9463  -27.5480 C   0  0  1  0  0  0  0  0  0  0  0  0
  -20.7548   -4.5926  -27.8406 C   0  0  0  0  0  0  0  0  0  0  0  0
  -23.0228   -3.7135  -27.1439 C   0  0  0  0  0  0  0  0  0  0  0  0
  -21.2353   -4.0695  -32.1424 C   0  0  2  0  0  0  0  0  0  0  0  0
  -18.9009   -4.7640  -26.9658 N   0  0  0  0  0  0  0  0  0  0  0  0
  -21.8567   -4.7945  -29.8862 N   0  0  0  0  0  0  0  0  0  0  0  0
  -21.9961   -2.9642  -32.6915 N   0  0  0  0  0  0  0  0  0  0  0  0
  -22.9232   -3.5125  -25.7377 N   0  0  0  0  0  0  0  0  0  0  0  0
  -23.1357   -5.4353  -31.7039 O   0  0  0  0  0  0  0  0  0  0  0  0
  -18.6676   -7.3049  -36.0187 O   0  0  0  0  0  0  0  0  0  0  0  0
  -26.4704   -5.5674  -22.0320 F   0  0  0  0  0  0  0  0  0  0  0  0
  -15.0226   -7.3463  -25.8541 F   0  0  0  0  0  0  0  0  0  0  0  0
  -15.1161   -2.7161  -24.8622 F   0  0  0  0  0  0  0  0  0  0  0  0
  -18.5614   -4.5315  -32.4350 H   0  0  0  0  0  0  0  0  0  0  0  0
  -22.3900   -5.5235  -34.1426 H   0  0  0  0  0  0  0  0  0  0  0  0
  -25.0548   -5.0099  -26.2809 H   0  0  0  0  0  0  0  0  0  0  0  0
  -22.7955   -3.1759  -23.1012 H   0  0  0  0  0  0  0  0  0  0  0  0
  -17.4442   -5.9413  -34.1244 H   0  0  0  0  0  0  0  0  0  0  0  0
  -21.2700   -6.9322  -35.8305 H   0  0  0  0  0  0  0  0  0  0  0  0
  -26.6377   -5.9261  -24.6184 H   0  0  0  0  0  0  0  0  0  0  0  0
  -24.3857   -4.0979  -21.4488 H   0  0  0  0  0  0  0  0  0  0  0  0
  -17.4173   -6.9714  -26.8123 H   0  0  0  0  0  0  0  0  0  0  0  0
  -17.5028   -2.7580  -25.9099 H   0  0  0  0  0  0  0  0  0  0  0  0
  -14.0446   -5.1033  -24.9275 H   0  0  0  0  0  0  0  0  0  0  0  0
  -22.4349   -6.5579  -28.9891 H   0  0  0  0  0  0  0  0  0  0  0  0
  -23.7381   -5.3571  -29.1018 H   0  0  0  0  0  0  0  0  0  0  0  0
  -20.0802   -6.4953  -26.8293 H   0  0  0  0  0  0  0  0  0  0  0  0
  -19.3008   -6.2376  -28.4209 H   0  0  0  0  0  0  0  0  0  0  0  0
  -19.6109   -2.7842  -27.1194 H   0  0  0  0  0  0  0  0  0  0  0  0
  -20.3253   -3.7623  -25.7944 H   0  0  0  0  0  0  0  0  0  0  0  0
  -20.9075   -3.0233  -29.3606 H   0  0  0  0  0  0  0  0  0  0  0  0
  -19.7919   -4.3399  -29.8214 H   0  0  0  0  0  0  0  0  0  0  0  0
  -22.3135   -5.7057  -26.7643 H   0  0  0  0  0  0  0  0  0  0  0  0
  -22.6064   -2.8649  -27.6836 H   0  0  0  0  0  0  0  0  0  0  0  0
  -24.0563   -3.8953  -27.4336 H   0  0  0  0  0  0  0  0  0  0  0  0
  -20.4739   -3.6285  -31.4899 H   0  0  0  0  0  0  0  0  0  0  0  0
  -21.9172   -2.9817  -33.6841 H   0  0  0  0  0  0  0  0  0  0  0  0
  -22.9493   -3.0656  -32.4214 H   0  0  0  0  0  0  0  0  0  0  0  0
  -22.1491   -2.9539  -25.3690 H   0  0  0  0  0  0  0  0  0  0  0  0
  -19.3241   -7.7068  -36.6097 H   0  0  0  0  0  0  0  0  0  0  0  0
  1  5  1  0  0  0  0
  1 12  2  0  0  0  0
  2  6  2  0  0  0  0
  2 12  1  0  0  0  0
  3  7  1  0  0  0  0
  3 14  2  0  0  0  0
  4  8  2  0  0  0  0
  4 14  1  0  0  0  0
  5 15  2  0  0  0  0
  6 15  1  0  0  0  0
  7 16  2  0  0  0  0
  8 16  1  0  0  0  0
  9 13  2  0  0  0  0
  9 17  1  0  0  0  0
 10 13  1  0  0  0  0
 10 18  2  0  0  0  0
 11 17  2  0  0  0  0
 11 18  1  0  0  0  0
 12 27  1  0  0  0  0
 13 28  1  0  0  0  0
 14 31  1  0  0  0  0
 15 33  1  0  0  0  0
 16 34  1  0  0  0  0
 17 35  1  0  0  0  0
 18 36  1  0  0  0  0
 19 27  1  0  0  0  0
 19 29  1  0  0  0  0
 19 32  2  0  0  0  0
 20 24  1  0  0  0  0
 20 29  1  0  0  0  0
 21 25  1  0  0  0  0
 21 28  1  0  0  0  0
 22 25  1  0  0  0  0
 22 28  1  0  0  0  0
 23 25  1  0  0  0  0
 23 29  1  0  0  0  0
 24 25  1  0  0  0  0
 24 26  1  0  0  0  0
 26 31  1  0  0  0  0
 27 30  1  0  0  0  0
  1 37  1  0  0  0  0
  2 38  1  0  0  0  0
  3 39  1  0  0  0  0
  4 40  1  0  0  0  0
  5 41  1  0  0  0  0
  6 42  1  0  0  0  0
  7 43  1  0  0  0  0
  8 44  1  0  0  0  0
  9 45  1  0  0  0  0
 10 46  1  0  0  0  0
 11 47  1  0  0  0  0
 20 48  1  0  0  0  0
 20 49  1  0  0  0  0
 21 50  1  0  0  0  0
 21 51  1  0  0  0  0
 22 52  1  0  0  0  0
 22 53  1  0  0  0  0
 23 54  1  0  0  0  0
 23 55  1  0  0  0  0
 24 56  1  0  0  0  0
 26 57  1  0  0  0  0
 26 58  1  0  0  0  0
 27 59  1  0  0  0  0
 30 60  1  0  0  0  0
 30 61  1  0  0  0  0
 31 62  1  0  0  0  0
 33 63  1  0  0  0  0
M  END
> <SMILES>
N[C@@H](C(=O)N1CC(CNc2ccc(cc2)F)C2(C1)CN(C2)c1cc(cc(c1)F)F)c1ccc(cc1)O

> <FORMATTED_ID>
H3D-008405

> <MOLFORMULA>
C27H27F3N4O2

> <Exact Mass>
496.21

> <XLogP>
3.16

> <TPSA_NOPS>
81.8

> <s_m_source_file>
ligprep_h3d.sdf

> <i_m_source_file_index>
4939

> <i_lp_mmshare_version>
55123

> <i_f3d_flags>
0

> <s_epik_input>
W2NIXTFbY0hdYyhbT0hdKVtjSF1bY0hdYzFbQ0BASF0oW05IMl0pQyg9TylOKFtDSDJdMilbQ0gyXVtDQEhdKFtDSDJdW05IXWMzW2NIXVtjSF1jKEYpW2NIXVtjSF0zKUMyNFtDSDJdTihbQ0gyXTQpYzVbY0hdYyhGKVtjSF1jKEYpW2NIXTU=

> <s_epik_cmdline>
J2VwaWtfcHl0aG9uJywgJy1waHQnLCAnMC41JywgJy1waCcsICc3LjUnLCAnLXRuJywgJzgnLCAnLW1hJywgJzUwMCcsICctaW1hZScsICc8aW5maWxlLm1hZT4nLCAnLW9tYWUnLCAnPG91dGZpbGUubWFlPic=

> <r_lp_tautomer_probability>
1

> <r_epik_Ionization_Penalty>
0.0506136

> <r_epik_Ionization_Penalty_Charging>
0

> <r_epik_Ionization_Penalty_Neutral>
0.0506136

> <r_epik_State_Penalty>
-0

> <r_epik_Charging_Adjusted_Penalty>
0

> <i_epik_Tot_Q>
0

> <i_epik_Tot_abs_Q>
0

> <s_lp_Force_Field>
S-OPLS

> <r_lp_Energy>
35.6986

> <b_lp_Chiralities_Consistent>
1

> <s_lp_Variant>
ligprep_h3d.sdf:4939-1

> <ROCS_ShapeQuery>
_7L13

> <ROCS_TanimotoCombo>
0.689 

> <ROCS_ShapeTanimoto>
0.633 

> <ROCS_ColorTanimoto>
0.056 

> <ROCS_RefTversky>
0.772 

> <ROCS_RefColorTversky>
0.118 

> <ROCS_RefTverskyCombo>
0.890 

> <ROCS_FitTversky>
0.778 

> <ROCS_FitColorTversky>
0.098 

> <ROCS_FitTverskyCombo>
0.876 

> <ROCS_ColorScore>
-1.070

> <ROCS_Overlap>
1281.965

> <ROCS_Rank>
485                 

$$$$
ligprep_h3d.sdf:5111_901
  -OEChem-08212117123D

 61 65  0     0  0  0  0  0  0999 V2000
  -21.2281   -6.3575  -33.4736 C   0  0  0  0  0  0  0  0  0  0  0  0
  -20.2382   -4.1758  -33.1618 C   0  0  0  0  0  0  0  0  0  0  0  0
  -20.3125   -6.6275  -34.4907 C   0  0  0  0  0  0  0  0  0  0  0  0
  -19.3226   -4.4458  -34.1789 C   0  0  0  0  0  0  0  0  0  0  0  0
  -18.4159   -3.8346  -26.0756 C   0  0  0  0  0  0  0  0  0  0  0  0
  -18.6921   -6.1327  -25.4223 C   0  0  0  0  0  0  0  0  0  0  0  0
  -23.7167   -4.0170  -27.7963 C   0  0  0  0  0  0  0  0  0  0  0  0
  -21.0150   -4.3869  -28.4978 C   0  0  0  0  0  0  0  0  0  0  0  0
  -17.0556   -3.9950  -25.8668 C   0  0  0  0  0  0  0  0  0  0  0  0
  -17.3194   -6.1903  -25.2429 C   0  0  0  0  0  0  0  0  0  0  0  0
  -22.7634   -4.3336  -26.8359 C   0  0  0  0  0  0  0  0  0  0  0  0
  -21.1910   -5.1316  -32.8092 C   0  0  0  0  0  0  0  0  0  0  0  0
  -19.2429   -4.9287  -25.8468 C   0  0  0  0  0  0  0  0  0  0  0  0
  -21.4121   -4.5028  -27.1714 C   0  0  0  0  0  0  0  0  0  0  0  0
  -23.3107   -3.8881  -29.1230 C   0  0  0  0  0  0  0  0  0  0  0  0
  -21.9689   -4.0762  -29.4720 C   0  0  0  0  0  0  0  0  0  0  0  0
  -19.3598   -5.6717  -34.8433 C   0  0  0  0  0  0  0  0  0  0  0  0
  -23.1403   -3.1318  -24.6727 C   0  0  0  0  0  0  0  0  0  0  0  0
  -24.1294   -5.4345  -24.9969 C   0  0  0  0  0  0  0  0  0  0  0  0
  -21.5830   -5.1566  -24.9736 C   0  0  0  0  0  0  0  0  0  0  0  0
  -23.4193   -3.2301  -23.1763 C   0  0  0  0  0  0  0  0  0  0  0  0
  -24.3563   -5.5360  -23.4942 C   0  0  0  0  0  0  0  0  0  0  0  0
  -22.9535   -4.5066  -25.3486 C   0  0  0  0  0  0  0  0  0  0  0  0
  -24.9613   -4.2018  -21.4776 C   0  0  0  0  0  0  0  0  0  0  0  0
  -24.4511   -2.1952  -30.3433 C   0  0  0  0  0  0  0  0  0  0  0  0
  -22.1751   -4.8407  -31.7145 C   0  0  0  0  0  0  0  0  0  0  0  0
  -16.4840   -5.1487  -25.4549 N   0  0  0  0  0  0  0  0  0  0  0  0
  -20.6229   -4.8187  -26.0423 N   0  0  0  0  0  0  0  0  0  0  0  0
  -24.5866   -4.1537  -22.9336 N   0  3  0  0  0  0  0  0  0  0  0  0
  -24.2343   -3.5790  -30.0765 O   0  0  0  0  0  0  0  0  0  0  0  0
  -21.5746   -3.9557  -30.7720 O   0  0  0  0  0  0  0  0  0  0  0  0
  -18.4788   -5.9320  -35.8182 F   0  0  0  0  0  0  0  0  0  0  0  0
  -21.9672   -7.1082  -33.2065 H   0  0  0  0  0  0  0  0  0  0  0  0
  -20.2015   -3.2179  -32.6495 H   0  0  0  0  0  0  0  0  0  0  0  0
  -20.3409   -7.5821  -35.0076 H   0  0  0  0  0  0  0  0  0  0  0  0
  -18.5810   -3.7018  -34.4540 H   0  0  0  0  0  0  0  0  0  0  0  0
  -18.8138   -2.8814  -26.4074 H   0  0  0  0  0  0  0  0  0  0  0  0
  -19.3086   -7.0055  -25.2347 H   0  0  0  0  0  0  0  0  0  0  0  0
  -24.7560   -3.8671  -27.5223 H   0  0  0  0  0  0  0  0  0  0  0  0
  -19.9759   -4.5291  -28.7804 H   0  0  0  0  0  0  0  0  0  0  0  0
  -16.3678   -3.1720  -26.0314 H   0  0  0  0  0  0  0  0  0  0  0  0
  -16.8402   -7.1063  -24.9133 H   0  0  0  0  0  0  0  0  0  0  0  0
  -23.9758   -2.5978  -25.1464 H   0  0  0  0  0  0  0  0  0  0  0  0
  -22.2556   -2.5007  -24.8284 H   0  0  0  0  0  0  0  0  0  0  0  0
  -23.9655   -6.4389  -25.4078 H   0  0  0  0  0  0  0  0  0  0  0  0
  -25.0543   -5.0699  -25.4631 H   0  0  0  0  0  0  0  0  0  0  0  0
  -21.2106   -4.8182  -24.0005 H   0  0  0  0  0  0  0  0  0  0  0  0
  -21.6758   -6.2508  -24.9244 H   0  0  0  0  0  0  0  0  0  0  0  0
  -22.5637   -3.6213  -22.6166 H   0  0  0  0  0  0  0  0  0  0  0  0
  -23.6907   -2.2478  -22.7749 H   0  0  0  0  0  0  0  0  0  0  0  0
  -25.2524   -6.1287  -23.2825 H   0  0  0  0  0  0  0  0  0  0  0  0
  -23.4991   -5.9725  -22.9705 H   0  0  0  0  0  0  0  0  0  0  0  0
  -24.1160   -4.6213  -20.9290 H   0  0  0  0  0  0  0  0  0  0  0  0
  -25.1725   -3.1812  -21.1530 H   0  0  0  0  0  0  0  0  0  0  0  0
  -25.8451   -4.8353  -21.3808 H   0  0  0  0  0  0  0  0  0  0  0  0
  -25.2101   -2.0881  -31.1222 H   0  0  0  0  0  0  0  0  0  0  0  0
  -23.5144   -1.7343  -30.6667 H   0  0  0  0  0  0  0  0  0  0  0  0
  -24.7986   -1.7071  -29.4297 H   0  0  0  0  0  0  0  0  0  0  0  0
  -23.0810   -4.3739  -32.1159 H   0  0  0  0  0  0  0  0  0  0  0  0
  -22.4702   -5.7634  -31.2033 H   0  0  0  0  0  0  0  0  0  0  0  0
  -25.3972   -3.7558  -23.4278 H   0  0  0  0  0  0  0  0  0  0  0  0
  1  3  1  0  0  0  0
  1 12  2  0  0  0  0
  2  4  2  0  0  0  0
  2 12  1  0  0  0  0
  3 17  2  0  0  0  0
  4 17  1  0  0  0  0
  5  9  1  0  0  0  0
  5 13  2  0  0  0  0
  6 10  2  0  0  0  0
  6 13  1  0  0  0  0
  7 11  1  0  0  0  0
  7 15  2  0  0  0  0
  8 14  1  0  0  0  0
  8 16  2  0  0  0  0
  9 27  2  0  0  0  0
 10 27  1  0  0  0  0
 11 14  2  0  0  0  0
 11 23  1  0  0  0  0
 12 26  1  0  0  0  0
 13 28  1  0  0  0  0
 14 28  1  0  0  0  0
 15 16  1  0  0  0  0
 15 30  1  0  0  0  0
 16 31  1  0  0  0  0
 17 32  1  0  0  0  0
 18 21  1  0  0  0  0
 18 23  1  0  0  0  0
 19 22  1  0  0  0  0
 19 23  1  0  0  0  0
 20 23  1  0  0  0  0
 20 28  1  0  0  0  0
 21 29  1  0  0  0  0
 22 29  1  0  0  0  0
 24 29  1  0  0  0  0
 25 30  1  0  0  0  0
 26 31  1  0  0  0  0
  1 33  1  0  0  0  0
  2 34  1  0  0  0  0
  3 35  1  0  0  0  0
  4 36  1  0  0  0  0
  5 37  1  0  0  0  0
  6 38  1  0  0  0  0
  7 39  1  0  0  0  0
  8 40  1  0  0  0  0
  9 41  1  0  0  0  0
 10 42  1  0  0  0  0
 18 43  1  0  0  0  0
 18 44  1  0  0  0  0
 19 45  1  0  0  0  0
 19 46  1  0  0  0  0
 20 47  1  0  0  0  0
 20 48  1  0  0  0  0
 21 49  1  0  0  0  0
 21 50  1  0  0  0  0
 22 51  1  0  0  0  0
 22 52  1  0  0  0  0
 24 53  1  0  0  0  0
 24 54  1  0  0  0  0
 24 55  1  0  0  0  0
 25 56  1  0  0  0  0
 25 57  1  0  0  0  0
 25 58  1  0  0  0  0
 26 59  1  0  0  0  0
 26 60  1  0  0  0  0
 29 61  1  0  0  0  0
M  CHG  1  29   1
M  END
> <SMILES>
COc1cc2c(cc1OCc1ccc(cc1)F)N(CC12CCN(C)CC1)c1ccncc1

> <FORMATTED_ID>
H3D-012581

> <MOLFORMULA>
C26H28FN3O2

> <Exact Mass>
433.22

> <XLogP>
5

> <TPSA_NOPS>
37.8

> <s_m_source_file>
ligprep_h3d.sdf

> <i_m_source_file_index>
5111

> <i_lp_mmshare_version>
55123

> <i_f3d_flags>
0

> <s_epik_input>
W2NIXTFbY0hdYyhGKVtjSF1bY0hdYzFbQ0gyXU9jKGMoW2NIXTIpT1tDSDNdKVtjSF1jKGMyQzM0W0NIMl1bQ0gyXU4oW0NIM10pW0NIMl1bQ0gyXTQpTihbQ0gyXTMpYzVbY0hdW2NIXW5bY0hdW2NIXTU=

> <s_epik_cmdline>
J2VwaWtfcHl0aG9uJywgJy1waHQnLCAnMC41JywgJy1waCcsICc3LjUnLCAnLXRuJywgJzgnLCAnLW1hJywgJzUwMCcsICctaW1hZScsICc8aW5maWxlLm1hZT4nLCAnLW9tYWUnLCAnPG91dGZpbGUubWFlPic=

> <r_lp_tautomer_probability>
1

> <r_epik_Ionization_Penalty>
0.130099

> <r_epik_Ionization_Penalty_Charging>
0.00689193

> <r_epik_Ionization_Penalty_Neutral>
0.123207

> <r_epik_State_Penalty>
0.112704

> <r_epik_Charging_Adjusted_Penalty>
0.119596

> <i_epik_Tot_Q>
1

> <i_epik_Tot_abs_Q>
1

> <s_lp_Force_Field>
S-OPLS

> <r_lp_Energy>
68.9953

> <b_lp_Chiralities_Consistent>
1

> <s_lp_Variant>
ligprep_h3d.sdf:5111-1

> <ROCS_ShapeQuery>
_7L13

> <ROCS_TanimotoCombo>
0.796 

> <ROCS_ShapeTanimoto>
0.688 

> <ROCS_ColorTanimoto>
0.109 

> <ROCS_RefTversky>
0.772 

> <ROCS_RefColorTversky>
0.206 

> <ROCS_RefTverskyCombo>
0.978 

> <ROCS_FitTversky>
0.862 

> <ROCS_FitColorTversky>
0.187 

> <ROCS_FitTverskyCombo>
1.049 

> <ROCS_ColorScore>
-1.863

> <ROCS_Overlap>
1275.001

> <ROCS_Rank>
486                 

$$$$
ligprep_h3d.sdf:695_1558
  -OEChem-08212117123D

 69 73  0     1  0  0  0  0  0999 V2000
  -16.6571   -4.7739  -26.3923 C   0  0  0  0  0  0  0  0  0  0  0  0
  -23.1647   -4.3293  -28.7438 C   0  0  0  0  0  0  0  0  0  0  0  0
  -20.7394   -4.4448  -25.3711 C   0  0  0  0  0  0  0  0  0  0  0  0
  -17.0441   -5.9997  -26.9665 C   0  0  0  0  0  0  0  0  0  0  0  0
  -20.9911   -4.6422  -27.7675 C   0  0  0  0  0  0  0  0  0  0  0  0
  -22.6374   -4.5597  -30.0169 C   0  0  0  0  0  0  0  0  0  0  0  0
  -20.4605   -4.8739  -29.0479 C   0  0  0  0  0  0  0  0  0  0  0  0
  -22.3646   -4.3648  -27.6050 C   0  0  0  0  0  0  0  0  0  0  0  0
  -20.1852   -4.6779  -26.6215 C   0  0  0  0  0  0  0  0  0  0  0  0
  -21.2837   -4.8324  -30.1695 C   0  0  0  0  0  0  0  0  0  0  0  0
  -22.0930   -4.1819  -25.3120 C   0  0  0  0  0  0  0  0  0  0  0  0
  -17.8379   -4.1035  -26.1857 C   0  0  0  0  0  0  0  0  0  0  0  0
  -22.7363   -3.9298  -24.0339 C   0  0  0  0  0  0  0  0  0  0  0  0
  -19.1677   -6.2309  -32.9291 C   0  0  0  0  0  0  0  0  0  0  0  0
  -20.4261   -4.2526  -33.7508 C   0  0  0  0  0  0  0  0  0  0  0  0
  -20.1191   -6.3479  -31.7383 C   0  0  0  0  0  0  0  0  0  0  0  0
  -21.3922   -4.3627  -32.5742 C   0  0  0  0  0  0  0  0  0  0  0  0
  -19.2264   -7.2808  -36.4738 C   0  0  0  0  0  0  0  0  0  0  0  0
  -20.9030   -6.4813  -34.8297 C   0  0  0  0  0  0  0  0  0  0  0  0
  -18.2025   -6.4075  -35.7751 C   0  0  0  0  0  0  0  0  0  0  0  0
  -19.8187   -5.6031  -34.1779 C   0  0  0  0  0  0  0  0  0  0  0  0
  -23.5565   -4.5070  -31.1943 C   0  0  0  0  0  0  0  0  0  0  0  0
  -19.0110   -5.1756  -29.3002 C   0  0  0  0  0  0  0  0  0  0  0  0
  -18.0958   -2.7680  -25.6123 C   0  0  0  0  0  0  0  0  0  0  0  0
  -24.8645   -4.0938  -22.7169 C   0  0  0  0  0  0  0  0  0  0  0  0
  -21.2928   -8.6167  -36.0659 C   0  0  0  0  0  0  0  0  0  0  0  0
  -18.3673   -6.1046  -27.1149 N   0  0  0  0  0  0  0  0  0  0  0  0
  -22.9052   -4.1382  -26.3929 N   0  0  0  0  0  0  0  0  0  0  0  0
  -18.8221   -4.9362  -26.6310 N   0  0  0  0  0  0  0  0  0  0  0  0
  -20.7614   -5.0628  -31.4492 N   0  0  0  0  0  0  0  0  0  0  0  0
  -24.0815   -4.3002  -23.9140 N   0  0  0  0  0  0  0  0  0  0  0  0
  -20.2680   -7.6948  -35.4668 N   0  3  1  0  0  0  0  0  0  0  0  0
  -22.1087   -3.3886  -23.1055 O   0  0  0  0  0  0  0  0  0  0  0  0
  -18.8189   -5.2772  -35.1623 O   0  0  0  0  0  0  0  0  0  0  0  0
  -15.6605   -4.4272  -26.1611 H   0  0  0  0  0  0  0  0  0  0  0  0
  -24.2278   -4.1153  -28.6398 H   0  0  0  0  0  0  0  0  0  0  0  0
  -20.1370   -4.4656  -24.4673 H   0  0  0  0  0  0  0  0  0  0  0  0
  -16.4169   -6.8208  -27.2826 H   0  0  0  0  0  0  0  0  0  0  0  0
  -18.2978   -5.6260  -32.6368 H   0  0  0  0  0  0  0  0  0  0  0  0
  -18.7587   -7.2237  -33.1450 H   0  0  0  0  0  0  0  0  0  0  0  0
  -20.9354   -3.7827  -34.6024 H   0  0  0  0  0  0  0  0  0  0  0  0
  -19.6169   -3.5567  -33.4875 H   0  0  0  0  0  0  0  0  0  0  0  0
  -20.8808   -7.1123  -31.9354 H   0  0  0  0  0  0  0  0  0  0  0  0
  -19.5431   -6.6835  -30.8663 H   0  0  0  0  0  0  0  0  0  0  0  0
  -21.6869   -3.3506  -32.2690 H   0  0  0  0  0  0  0  0  0  0  0  0
  -22.3054   -4.8888  -32.8787 H   0  0  0  0  0  0  0  0  0  0  0  0
  -19.7454   -6.7342  -37.2688 H   0  0  0  0  0  0  0  0  0  0  0  0
  -18.7677   -8.1884  -36.8778 H   0  0  0  0  0  0  0  0  0  0  0  0
  -21.6446   -6.8426  -34.1113 H   0  0  0  0  0  0  0  0  0  0  0  0
  -21.4164   -5.9442  -35.6366 H   0  0  0  0  0  0  0  0  0  0  0  0
  -17.6196   -6.9707  -35.0391 H   0  0  0  0  0  0  0  0  0  0  0  0
  -17.4897   -6.0258  -36.5136 H   0  0  0  0  0  0  0  0  0  0  0  0
  -23.5995   -3.4885  -31.5960 H   0  0  0  0  0  0  0  0  0  0  0  0
  -23.2198   -5.1833  -31.9891 H   0  0  0  0  0  0  0  0  0  0  0  0
  -24.5712   -4.8181  -30.9178 H   0  0  0  0  0  0  0  0  0  0  0  0
  -18.8438   -6.2553  -29.2600 H   0  0  0  0  0  0  0  0  0  0  0  0
  -18.7023   -4.8035  -30.2815 H   0  0  0  0  0  0  0  0  0  0  0  0
  -18.3776   -4.6887  -28.5527 H   0  0  0  0  0  0  0  0  0  0  0  0
  -18.0929   -1.9922  -26.3954 H   0  0  0  0  0  0  0  0  0  0  0  0
  -19.0702   -2.7202  -25.0968 H   0  0  0  0  0  0  0  0  0  0  0  0
  -17.3390   -2.4877  -24.8598 H   0  0  0  0  0  0  0  0  0  0  0  0
  -24.8346   -5.0023  -22.0975 H   0  0  0  0  0  0  0  0  0  0  0  0
  -24.4490   -3.2487  -22.1484 H   0  0  0  0  0  0  0  0  0  0  0  0
  -25.9059   -3.8729  -22.9937 H   0  0  0  0  0  0  0  0  0  0  0  0
  -21.8125   -8.0705  -36.8553 H   0  0  0  0  0  0  0  0  0  0  0  0
  -20.7667   -9.4840  -36.4695 H   0  0  0  0  0  0  0  0  0  0  0  0
  -21.9826   -8.9103  -35.2724 H   0  0  0  0  0  0  0  0  0  0  0  0
  -24.5644   -4.6801  -24.7216 H   0  0  0  0  0  0  0  0  0  0  0  0
  -19.7952   -8.2329  -34.7290 H   0  0  0  0  0  0  0  0  0  0  0  0
  1  4  1  0  0  0  0
  1 12  2  0  0  0  0
  2  6  2  0  0  0  0
  2  8  1  0  0  0  0
  3  9  1  0  0  0  0
  3 11  2  0  0  0  0
  4 27  2  0  0  0  0
  5  7  1  0  0  0  0
  5  8  1  0  0  0  0
  5  9  2  0  0  0  0
  6 10  1  0  0  0  0
  6 22  1  0  0  0  0
  7 10  2  0  0  0  0
  7 23  1  0  0  0  0
  8 28  2  0  0  0  0
  9 29  1  0  0  0  0
 10 30  1  0  0  0  0
 11 13  1  0  0  0  0
 11 28  1  0  0  0  0
 12 24  1  0  0  0  0
 12 29  1  0  0  0  0
 13 31  1  0  0  0  0
 13 33  2  0  0  0  0
 14 16  1  0  0  0  0
 14 21  1  0  0  0  0
 15 17  1  0  0  0  0
 15 21  1  0  0  0  0
 16 30  1  0  0  0  0
 17 30  1  0  0  0  0
 18 20  1  0  0  0  0
 18 32  1  0  0  0  0
 19 21  1  0  0  0  0
 19 32  1  0  0  0  0
 20 34  1  0  0  0  0
 21 34  1  0  0  0  0
 25 31  1  0  0  0  0
 26 32  1  0  0  0  0
 27 29  1  0  0  0  0
  1 35  1  0  0  0  0
  2 36  1  0  0  0  0
  3 37  1  0  0  0  0
  4 38  1  0  0  0  0
 14 39  1  0  0  0  0
 14 40  1  0  0  0  0
 15 41  1  0  0  0  0
 15 42  1  0  0  0  0
 16 43  1  0  0  0  0
 16 44  1  0  0  0  0
 17 45  1  0  0  0  0
 17 46  1  0  0  0  0
 18 47  1  0  0  0  0
 18 48  1  0  0  0  0
 19 49  1  0  0  0  0
 19 50  1  0  0  0  0
 20 51  1  0  0  0  0
 20 52  1  0  0  0  0
 22 53  1  0  0  0  0
 22 54  1  0  0  0  0
 22 55  1  0  0  0  0
 23 56  1  0  0  0  0
 23 57  1  0  0  0  0
 23 58  1  0  0  0  0
 24 59  1  0  0  0  0
 24 60  1  0  0  0  0
 24 61  1  0  0  0  0
 25 62  1  0  0  0  0
 25 63  1  0  0  0  0
 25 64  1  0  0  0  0
 26 65  1  0  0  0  0
 26 66  1  0  0  0  0
 26 67  1  0  0  0  0
 31 68  1  0  0  0  0
 32 69  1  0  0  0  0
M  CHG  1  32   1
M  END
> <SMILES>
CNC(=O)c1cc(c2c(c(c(cc2n1)C)N1CCC2(CC1)CN(C)CCO2)C)-n1nccc1C

> <FORMATTED_ID>
H3D-004890

> <MOLFORMULA>
C26H34N6O2

> <Exact Mass>
462.27

> <XLogP>
2.27

> <TPSA_NOPS>
75.5

> <s_m_source_file>
ligprep_h3d.sdf

> <i_m_source_file_index>
695

> <i_lp_mmshare_version>
55123

> <i_f3d_flags>
0

> <s_epik_input>
W0NIM11jMVtjSF1bY0hdbm4xLWMyW2NIXWMoQyg9TylbTkhdW0NIM10pbmMoYzIzKVtjSF1jKFtDSDNdKWMoYzNbQ0gzXSlOKFtDSDJdW0NIMl00KVtDSDJdW0NIMl1DNDVbQ0gyXU4oW0NIM10pW0NIMl1bQ0gyXU81

> <s_epik_cmdline>
J2VwaWtfcHl0aG9uJywgJy1waHQnLCAnMC41JywgJy1waCcsICc3LjUnLCAnLXRuJywgJzgnLCAnLW1hJywgJzUwMCcsICctaW1hZScsICc8aW5maWxlLm1hZT4nLCAnLW9tYWUnLCAnPG91dGZpbGUubWFlPic=

> <r_lp_tautomer_probability>
1

> <r_epik_Ionization_Penalty>
0.444096

> <r_epik_Ionization_Penalty_Charging>
0.444046

> <r_epik_Ionization_Penalty_Neutral>
5.00327e-05

> <r_epik_State_Penalty>
0.446347

> <r_epik_Charging_Adjusted_Penalty>
0.890393

> <i_epik_Tot_Q>
1

> <i_epik_Tot_abs_Q>
1

> <s_lp_Force_Field>
S-OPLS

> <r_lp_Energy>
77.6753

> <b_lp_Chiralities_Consistent>
1

> <s_lp_Variant>
ligprep_h3d.sdf:695-2

> <ROCS_ShapeQuery>
_7L13

> <ROCS_TanimotoCombo>
0.760 

> <ROCS_ShapeTanimoto>
0.653 

> <ROCS_ColorTanimoto>
0.107 

> <ROCS_RefTversky>
0.772 

> <ROCS_RefColorTversky>
0.222 

> <ROCS_RefTverskyCombo>
0.994 

> <ROCS_FitTversky>
0.808 

> <ROCS_FitColorTversky>
0.171 

> <ROCS_FitTverskyCombo>
0.980 

> <ROCS_ColorScore>
-2.031

> <ROCS_Overlap>
1278.814

> <ROCS_Rank>
487                 

$$$$
ligprep_h3d.sdf:5156_1191
  -OEChem-08212117123D

 68 73  0     0  0  0  0  0  0999 V2000
  -19.3708   -6.1429  -34.7279 C   0  0  0  0  0  0  0  0  0  0  0  0
  -20.3617   -7.0370  -34.3225 C   0  0  0  0  0  0  0  0  0  0  0  0
  -19.2699   -4.8912  -34.1205 C   0  0  0  0  0  0  0  0  0  0  0  0
  -21.2518   -6.6794  -33.3098 C   0  0  0  0  0  0  0  0  0  0  0  0
  -20.1601   -4.5336  -33.1078 C   0  0  0  0  0  0  0  0  0  0  0  0
  -23.5744   -3.9628  -27.7217 C   0  0  0  0  0  0  0  0  0  0  0  0
  -20.8949   -4.4943  -28.4320 C   0  0  0  0  0  0  0  0  0  0  0  0
  -15.2265   -6.0162  -25.8441 C   0  0  0  0  0  0  0  0  0  0  0  0
  -22.6314   -4.2697  -26.7484 C   0  0  0  0  0  0  0  0  0  0  0  0
  -21.1510   -5.4277  -32.7025 C   0  0  0  0  0  0  0  0  0  0  0  0
  -21.3080   -4.5314  -27.1081 C   0  0  0  0  0  0  0  0  0  0  0  0
  -23.1728   -3.9219  -29.0584 C   0  0  0  0  0  0  0  0  0  0  0  0
  -21.8420   -4.1860  -29.4106 C   0  0  0  0  0  0  0  0  0  0  0  0
  -14.7576   -4.7306  -25.7100 C   0  0  0  0  0  0  0  0  0  0  0  0
  -16.8855   -4.5451  -25.7863 C   0  0  0  0  0  0  0  0  0  0  0  0
  -18.2622   -4.1750  -25.8140 C   0  0  0  0  0  0  0  0  0  0  0  0
  -18.8554   -6.5273  -26.0465 C   0  0  0  0  0  0  0  0  0  0  0  0
  -17.5614   -6.8842  -26.0219 C   0  0  0  0  0  0  0  0  0  0  0  0
  -19.2306   -5.1130  -25.9389 C   0  0  0  0  0  0  0  0  0  0  0  0
  -23.8422   -5.4825  -24.8974 C   0  0  0  0  0  0  0  0  0  0  0  0
  -23.2966   -3.0275  -24.6558 C   0  0  0  0  0  0  0  0  0  0  0  0
  -21.3958   -4.7382  -24.7768 C   0  0  0  0  0  0  0  0  0  0  0  0
  -24.1394   -5.5542  -23.4039 C   0  0  0  0  0  0  0  0  0  0  0  0
  -23.5974   -3.1168  -23.1640 C   0  0  0  0  0  0  0  0  0  0  0  0
  -22.8344   -4.3718  -25.2498 C   0  0  0  0  0  0  0  0  0  0  0  0
  -25.0404   -4.2525  -21.4791 C   0  0  0  0  0  0  0  0  0  0  0  0
  -24.2498   -2.2437  -30.3543 C   0  0  0  0  0  0  0  0  0  0  0  0
  -22.1083   -5.0423  -31.6132 C   0  0  0  0  0  0  0  0  0  0  0  0
  -13.3613   -4.2786  -25.6085 C   0  0  0  0  0  0  0  0  0  0  0  0
  -15.7876   -3.8253  -25.6749 N   0  0  0  0  0  0  0  0  0  0  0  0
  -16.5916   -5.8986  -25.8930 N   0  0  0  0  0  0  0  0  0  0  0  0
  -20.5458   -4.8142  -25.9699 N   0  0  0  0  0  0  0  0  0  0  0  0
  -24.6132   -4.2056  -22.9206 N   0  3  0  0  0  0  0  0  0  0  0  0
  -24.0911   -3.6206  -30.0199 O   0  0  0  0  0  0  0  0  0  0  0  0
  -21.4577   -4.1434  -30.7184 O   0  0  0  0  0  0  0  0  0  0  0  0
  -12.4321   -5.2899  -25.6568 F   0  0  0  0  0  0  0  0  0  0  0  0
  -12.9714   -3.4144  -26.6033 F   0  0  0  0  0  0  0  0  0  0  0  0
  -13.0877   -3.6107  -24.4407 F   0  0  0  0  0  0  0  0  0  0  0  0
  -18.6770   -6.4220  -35.5154 H   0  0  0  0  0  0  0  0  0  0  0  0
  -20.4397   -8.0120  -34.7945 H   0  0  0  0  0  0  0  0  0  0  0  0
  -18.4979   -4.1953  -34.4351 H   0  0  0  0  0  0  0  0  0  0  0  0
  -22.0208   -7.3824  -33.0006 H   0  0  0  0  0  0  0  0  0  0  0  0
  -20.0740   -3.5562  -32.6405 H   0  0  0  0  0  0  0  0  0  0  0  0
  -24.6057   -3.7579  -27.4512 H   0  0  0  0  0  0  0  0  0  0  0  0
  -19.8684   -4.6958  -28.7181 H   0  0  0  0  0  0  0  0  0  0  0  0
  -14.7260   -6.9731  -25.9072 H   0  0  0  0  0  0  0  0  0  0  0  0
  -18.5130   -3.1220  -25.7317 H   0  0  0  0  0  0  0  0  0  0  0  0
  -19.6339   -7.2763  -26.1464 H   0  0  0  0  0  0  0  0  0  0  0  0
  -17.2342   -7.9141  -26.0985 H   0  0  0  0  0  0  0  0  0  0  0  0
  -23.4743   -6.4589  -25.2392 H   0  0  0  0  0  0  0  0  0  0  0  0
  -24.7877   -5.3166  -25.4312 H   0  0  0  0  0  0  0  0  0  0  0  0
  -24.2016   -2.6788  -25.1716 H   0  0  0  0  0  0  0  0  0  0  0  0
  -22.5392   -2.2510  -24.8252 H   0  0  0  0  0  0  0  0  0  0  0  0
  -20.9892   -3.9857  -24.0901 H   0  0  0  0  0  0  0  0  0  0  0  0
  -21.3726   -5.7018  -24.2534 H   0  0  0  0  0  0  0  0  0  0  0  0
  -24.9430   -6.2723  -23.2093 H   0  0  0  0  0  0  0  0  0  0  0  0
  -23.2588   -5.8292  -22.8142 H   0  0  0  0  0  0  0  0  0  0  0  0
  -22.7077   -3.3519  -22.5706 H   0  0  0  0  0  0  0  0  0  0  0  0
  -24.0324   -2.1777  -22.8062 H   0  0  0  0  0  0  0  0  0  0  0  0
  -24.1645   -4.5063  -20.8794 H   0  0  0  0  0  0  0  0  0  0  0  0
  -25.4264   -3.2667  -21.2128 H   0  0  0  0  0  0  0  0  0  0  0  0
  -25.8151   -5.0159  -21.3849 H   0  0  0  0  0  0  0  0  0  0  0  0
  -25.0106   -2.1422  -31.1321 H   0  0  0  0  0  0  0  0  0  0  0  0
  -23.2969   -1.8413  -30.7070 H   0  0  0  0  0  0  0  0  0  0  0  0
  -24.5672   -1.6959  -29.4638 H   0  0  0  0  0  0  0  0  0  0  0  0
  -22.9967   -4.5534  -32.0274 H   0  0  0  0  0  0  0  0  0  0  0  0
  -22.4391   -5.9261  -31.0571 H   0  0  0  0  0  0  0  0  0  0  0  0
  -25.4539   -3.9652  -23.4638 H   0  0  0  0  0  0  0  0  0  0  0  0
  1  2  2  0  0  0  0
  1  3  1  0  0  0  0
  2  4  1  0  0  0  0
  3  5  2  0  0  0  0
  4 10  2  0  0  0  0
  5 10  1  0  0  0  0
  6  9  1  0  0  0  0
  6 12  2  0  0  0  0
  7 11  1  0  0  0  0
  7 13  2  0  0  0  0
  8 14  2  0  0  0  0
  8 31  1  0  0  0  0
  9 11  2  0  0  0  0
  9 25  1  0  0  0  0
 10 28  1  0  0  0  0
 11 32  1  0  0  0  0
 12 13  1  0  0  0  0
 12 34  1  0  0  0  0
 13 35  1  0  0  0  0
 14 29  1  0  0  0  0
 14 30  1  0  0  0  0
 15 16  1  0  0  0  0
 15 30  2  0  0  0  0
 15 31  1  0  0  0  0
 16 19  2  0  0  0  0
 17 18  2  0  0  0  0
 17 19  1  0  0  0  0
 18 31  1  0  0  0  0
 19 32  1  0  0  0  0
 20 23  1  0  0  0  0
 20 25  1  0  0  0  0
 21 24  1  0  0  0  0
 21 25  1  0  0  0  0
 22 25  1  0  0  0  0
 22 32  1  0  0  0  0
 23 33  1  0  0  0  0
 24 33  1  0  0  0  0
 26 33  1  0  0  0  0
 27 34  1  0  0  0  0
 28 35  1  0  0  0  0
 29 36  1  0  0  0  0
 29 37  1  0  0  0  0
 29 38  1  0  0  0  0
  1 39  1  0  0  0  0
  2 40  1  0  0  0  0
  3 41  1  0  0  0  0
  4 42  1  0  0  0  0
  5 43  1  0  0  0  0
  6 44  1  0  0  0  0
  7 45  1  0  0  0  0
  8 46  1  0  0  0  0
 16 47  1  0  0  0  0
 17 48  1  0  0  0  0
 18 49  1  0  0  0  0
 20 50  1  0  0  0  0
 20 51  1  0  0  0  0
 21 52  1  0  0  0  0
 21 53  1  0  0  0  0
 22 54  1  0  0  0  0
 22 55  1  0  0  0  0
 23 56  1  0  0  0  0
 23 57  1  0  0  0  0
 24 58  1  0  0  0  0
 24 59  1  0  0  0  0
 26 60  1  0  0  0  0
 26 61  1  0  0  0  0
 26 62  1  0  0  0  0
 27 63  1  0  0  0  0
 27 64  1  0  0  0  0
 27 65  1  0  0  0  0
 28 66  1  0  0  0  0
 28 67  1  0  0  0  0
 33 68  1  0  0  0  0
M  CHG  1  33   1
M  END
> <SMILES>
COc1cc2c(cc1OCc1ccccc1)N(CC12CCN(C)CC1)c1ccn2cc(nc2c1)C(F)(F)F

> <FORMATTED_ID>
H3D-013946

> <MOLFORMULA>
C29H29F3N4O2

> <Exact Mass>
522.22

> <XLogP>
6.98

> <TPSA_NOPS>
42.2

> <s_m_source_file>
ligprep_h3d.sdf

> <i_m_source_file_index>
5156

> <i_lp_mmshare_version>
55123

> <i_f3d_flags>
0

> <s_epik_input>
W2NIXTFbY0hdW2NIXVtjSF1bY0hdYzFbQ0gyXU9jKGMoW2NIXTIpT1tDSDNdKVtjSF1jKGMyQzM0W0NIMl1bQ0gyXU4oW0NIM10pW0NIMl1bQ0gyXTQpTihbQ0gyXTMpYyhbY0hdW2NIXTUpW2NIXWMobjU2KW5jKFtjSF02KUMoRikoRilG

> <s_epik_cmdline>
J2VwaWtfcHl0aG9uJywgJy1waHQnLCAnMC41JywgJy1waCcsICc3LjUnLCAnLXRuJywgJzgnLCAnLW1hJywgJzUwMCcsICctaW1hZScsICc8aW5maWxlLm1hZT4nLCAnLW9tYWUnLCAnPG91dGZpbGUubWFlPic=

> <r_lp_tautomer_probability>
1

> <r_epik_Ionization_Penalty>
0.00814725

> <r_epik_Ionization_Penalty_Charging>
0.00814725

> <r_epik_Ionization_Penalty_Neutral>
3.07946e-10

> <r_epik_State_Penalty>
-0

> <r_epik_Charging_Adjusted_Penalty>
0.00814725

> <i_epik_Tot_Q>
1

> <i_epik_Tot_abs_Q>
1

> <s_lp_Force_Field>
S-OPLS

> <r_lp_Energy>
76.8286

> <b_lp_Chiralities_Consistent>
1

> <s_lp_Variant>
ligprep_h3d.sdf:5156-1

> <ROCS_ShapeQuery>
_7L13

> <ROCS_TanimotoCombo>
0.699 

> <ROCS_ShapeTanimoto>
0.598 

> <ROCS_ColorTanimoto>
0.101 

> <ROCS_RefTversky>
0.772 

> <ROCS_RefColorTversky>
0.202 

> <ROCS_RefTverskyCombo>
0.974 

> <ROCS_FitTversky>
0.726 

> <ROCS_FitColorTversky>
0.168 

> <ROCS_FitTverskyCombo>
0.894 

> <ROCS_ColorScore>
-1.837

> <ROCS_Overlap>
1286.420

> <ROCS_Rank>
488                 

$$$$
ligprep_h3d.sdf:4741_1481
  -OEChem-08212117123D

 63 68  0     1  0  0  0  0  0999 V2000
  -15.0448   -5.3398  -24.5537 C   0  0  0  0  0  0  0  0  0  0  0  0
  -24.9935   -5.0119  -22.5370 C   0  0  0  0  0  0  0  0  0  0  0  0
  -15.7246   -6.4322  -25.0923 C   0  0  0  0  0  0  0  0  0  0  0  0
  -15.6017   -4.0634  -24.6336 C   0  0  0  0  0  0  0  0  0  0  0  0
  -23.7782   -4.3738  -22.7846 C   0  0  0  0  0  0  0  0  0  0  0  0
  -25.9036   -5.2066  -23.5761 C   0  0  0  0  0  0  0  0  0  0  0  0
  -18.9961   -5.7222  -32.3819 C   0  0  0  0  0  0  0  0  0  0  0  0
  -18.4168   -6.6207  -33.2839 C   0  0  0  0  0  0  0  0  0  0  0  0
  -16.9611   -6.2483  -25.7110 C   0  0  0  0  0  0  0  0  0  0  0  0
  -16.8382   -3.8794  -25.2523 C   0  0  0  0  0  0  0  0  0  0  0  0
  -23.4730   -3.9301  -24.0713 C   0  0  0  0  0  0  0  0  0  0  0  0
  -25.5983   -4.7629  -24.8628 C   0  0  0  0  0  0  0  0  0  0  0  0
  -20.7110   -5.1032  -33.9938 C   0  0  0  0  0  0  0  0  0  0  0  0
  -20.4067   -6.4168  -36.2334 C   0  0  0  0  0  0  0  0  0  0  0  0
  -20.1406   -6.0018  -34.9108 C   0  0  0  0  0  0  0  0  0  0  0  0
  -20.1236   -4.9755  -32.7288 C   0  0  0  0  0  0  0  0  0  0  0  0
  -19.0179   -6.7331  -34.5395 C   0  0  0  0  0  0  0  0  0  0  0  0
  -17.5180   -4.9719  -25.7910 C   0  0  0  0  0  0  0  0  0  0  0  0
  -24.3830   -4.1246  -25.1104 C   0  0  0  0  0  0  0  0  0  0  0  0
  -21.7647   -4.6800  -30.8722 C   0  0  0  0  0  0  0  0  0  0  0  0
  -22.4579   -5.2411  -28.5578 C   0  0  0  0  0  0  0  0  0  0  0  0
  -19.6533   -5.7057  -27.0339 C   0  0  0  0  0  0  0  0  0  0  0  0
  -19.7042   -3.7225  -26.3409 C   0  0  0  0  0  0  0  0  0  0  0  0
  -20.3734   -4.0279  -28.8564 C   0  0  0  0  0  0  0  0  0  0  0  0
  -22.0394   -4.7044  -27.1927 C   0  0  1  0  0  0  0  0  0  0  0  0
  -20.5382   -4.4815  -27.4021 C   0  0  0  0  0  0  0  0  0  0  0  0
  -20.7166   -4.0224  -31.7342 C   0  0  0  0  0  0  0  0  0  0  0  0
  -22.7606   -3.3992  -26.8618 C   0  0  0  0  0  0  0  0  0  0  0  0
  -19.5385   -7.3297  -36.6748 N   0  0  0  0  0  0  0  0  0  0  0  0
  -18.7113   -7.5012  -35.6302 N   0  0  0  0  0  0  0  0  0  0  0  0
  -18.7608   -4.7867  -26.4125 N   0  0  0  0  0  0  0  0  0  0  0  0
  -21.5301   -4.6390  -29.5070 N   0  0  0  0  0  0  0  0  0  0  0  0
  -24.0776   -3.6806  -26.3991 N   0  0  0  0  0  0  0  0  0  0  0  0
  -22.7489   -5.2133  -31.3872 O   0  0  0  0  0  0  0  0  0  0  0  0
  -14.0818   -5.4831  -24.0721 H   0  0  0  0  0  0  0  0  0  0  0  0
  -25.2312   -5.3572  -21.5349 H   0  0  0  0  0  0  0  0  0  0  0  0
  -15.2909   -7.4258  -25.0301 H   0  0  0  0  0  0  0  0  0  0  0  0
  -15.0722   -3.2127  -24.2142 H   0  0  0  0  0  0  0  0  0  0  0  0
  -23.0700   -4.2223  -21.9757 H   0  0  0  0  0  0  0  0  0  0  0  0
  -26.8500   -5.7035  -23.3830 H   0  0  0  0  0  0  0  0  0  0  0  0
  -18.5523   -5.6108  -31.3948 H   0  0  0  0  0  0  0  0  0  0  0  0
  -17.5410   -7.2010  -33.0158 H   0  0  0  0  0  0  0  0  0  0  0  0
  -17.4826   -7.1061  -26.1276 H   0  0  0  0  0  0  0  0  0  0  0  0
  -17.2625   -2.8801  -25.3085 H   0  0  0  0  0  0  0  0  0  0  0  0
  -22.5233   -3.4338  -24.2538 H   0  0  0  0  0  0  0  0  0  0  0  0
  -26.3152   -4.9202  -25.6647 H   0  0  0  0  0  0  0  0  0  0  0  0
  -21.5880   -4.5207  -34.2613 H   0  0  0  0  0  0  0  0  0  0  0  0
  -21.1982   -6.0906  -36.8935 H   0  0  0  0  0  0  0  0  0  0  0  0
  -22.3083   -6.3258  -28.6141 H   0  0  0  0  0  0  0  0  0  0  0  0
  -23.4957   -5.0231  -28.8287 H   0  0  0  0  0  0  0  0  0  0  0  0
  -20.0891   -6.4094  -26.3160 H   0  0  0  0  0  0  0  0  0  0  0  0
  -19.1976   -6.2558  -27.8616 H   0  0  0  0  0  0  0  0  0  0  0  0
  -19.2895   -2.7586  -26.6462 H   0  0  0  0  0  0  0  0  0  0  0  0
  -20.1619   -3.6416  -25.3493 H   0  0  0  0  0  0  0  0  0  0  0  0
  -20.4665   -2.9415  -28.9576 H   0  0  0  0  0  0  0  0  0  0  0  0
  -19.4416   -4.3575  -29.3247 H   0  0  0  0  0  0  0  0  0  0  0  0
  -22.2471   -5.4341  -26.4024 H   0  0  0  0  0  0  0  0  0  0  0  0
  -19.9358   -3.6204  -31.0862 H   0  0  0  0  0  0  0  0  0  0  0  0
  -21.1718   -3.1691  -32.2393 H   0  0  0  0  0  0  0  0  0  0  0  0
  -22.1810   -2.8977  -26.0888 H   0  0  0  0  0  0  0  0  0  0  0  0
  -22.7927   -2.8081  -27.7753 H   0  0  0  0  0  0  0  0  0  0  0  0
  -17.9505   -8.1620  -35.7267 H   0  0  0  0  0  0  0  0  0  0  0  0
  -24.8668   -3.5539  -27.0382 H   0  0  0  0  0  0  0  0  0  0  0  0
  1  3  2  0  0  0  0
  1  4  1  0  0  0  0
  2  5  2  0  0  0  0
  2  6  1  0  0  0  0
  3  9  1  0  0  0  0
  4 10  2  0  0  0  0
  5 11  1  0  0  0  0
  6 12  2  0  0  0  0
  7  8  2  0  0  0  0
  7 16  1  0  0  0  0
  8 17  1  0  0  0  0
  9 18  2  0  0  0  0
 10 18  1  0  0  0  0
 11 19  2  0  0  0  0
 12 19  1  0  0  0  0
 13 15  1  0  0  0  0
 13 16  2  0  0  0  0
 14 15  1  0  0  0  0
 14 29  2  0  0  0  0
 15 17  2  0  0  0  0
 16 27  1  0  0  0  0
 17 30  1  0  0  0  0
 18 31  1  0  0  0  0
 19 33  1  0  0  0  0
 20 27  1  0  0  0  0
 20 32  1  0  0  0  0
 20 34  2  0  0  0  0
 21 25  1  0  0  0  0
 21 32  1  0  0  0  0
 22 26  1  0  0  0  0
 22 31  1  0  0  0  0
 23 26  1  0  0  0  0
 23 31  1  0  0  0  0
 24 26  1  0  0  0  0
 24 32  1  0  0  0  0
 25 26  1  0  0  0  0
 25 28  1  0  0  0  0
 28 33  1  0  0  0  0
 29 30  1  0  0  0  0
  1 35  1  0  0  0  0
  2 36  1  0  0  0  0
  3 37  1  0  0  0  0
  4 38  1  0  0  0  0
  5 39  1  0  0  0  0
  6 40  1  0  0  0  0
  7 41  1  0  0  0  0
  8 42  1  0  0  0  0
  9 43  1  0  0  0  0
 10 44  1  0  0  0  0
 11 45  1  0  0  0  0
 12 46  1  0  0  0  0
 13 47  1  0  0  0  0
 14 48  1  0  0  0  0
 21 49  1  0  0  0  0
 21 50  1  0  0  0  0
 22 51  1  0  0  0  0
 22 52  1  0  0  0  0
 23 53  1  0  0  0  0
 23 54  1  0  0  0  0
 24 55  1  0  0  0  0
 24 56  1  0  0  0  0
 25 57  1  0  0  0  0
 27 58  1  0  0  0  0
 27 59  1  0  0  0  0
 28 60  1  0  0  0  0
 28 61  1  0  0  0  0
 30 62  1  0  0  0  0
 33 63  1  0  0  0  0
M  END
> <SMILES>
O=C(Cc1ccc2[nH]ncc2c1)N1CC(CNc2ccccc2)C2(C1)CN(C2)c1ccccc1

> <FORMATTED_ID>
H3D-007218

> <MOLFORMULA>
C28H29N5O

> <Exact Mass>
451.24

> <XLogP>
4.89

> <TPSA_NOPS>
64.3

> <s_m_source_file>
ligprep_h3d.sdf

> <i_m_source_file_index>
4741

> <i_lp_mmshare_version>
55123

> <i_f3d_flags>
0

> <s_epik_input>
TjE9TltDSF09QyhDMTIpW0NIMl1DKD1bQ0hdW0NIXT0yKVtDSDJdQyg9TylOKFtDSDJdMylbQ0gyXVtDQEhdKFtDSDJdW05IXWM0W2NIXVtjSF1bY0hdW2NIXVtjSF00KUMzNVtDSDJdTihbQ0gyXTUpYzZbY0hdW2NIXVtjSF1bY0hdW2NIXTY=

> <s_epik_cmdline>
J2VwaWtfcHl0aG9uJywgJy1waHQnLCAnMC41JywgJy1waCcsICc3LjUnLCAnLXRuJywgJzgnLCAnLW1hJywgJzUwMCcsICctaW1hZScsICc8aW5maWxlLm1hZT4nLCAnLW9tYWUnLCAnPG91dGZpbGUubWFlPic=

> <r_lp_tautomer_probability>
1

> <r_epik_Ionization_Penalty>
0.00291409

> <r_epik_Ionization_Penalty_Charging>
0

> <r_epik_Ionization_Penalty_Neutral>
0.00291409

> <r_epik_State_Penalty>
-0

> <r_epik_Charging_Adjusted_Penalty>
0

> <i_epik_Tot_Q>
0

> <i_epik_Tot_abs_Q>
0

> <s_lp_Force_Field>
S-OPLS

> <r_lp_Energy>
43.2674

> <b_lp_Chiralities_Consistent>
1

> <s_lp_Variant>
ligprep_h3d.sdf:4741-1

> <ROCS_ShapeQuery>
_7L13

> <ROCS_TanimotoCombo>
0.715 

> <ROCS_ShapeTanimoto>
0.652 

> <ROCS_ColorTanimoto>
0.064 

> <ROCS_RefTversky>
0.772 

> <ROCS_RefColorTversky>
0.126 

> <ROCS_RefTverskyCombo>
0.898 

> <ROCS_FitTversky>
0.807 

> <ROCS_FitColorTversky>
0.114 

> <ROCS_FitTverskyCombo>
0.922 

> <ROCS_ColorScore>
-1.142

> <ROCS_Overlap>
1278.590

> <ROCS_Rank>
489                 

$$$$
ligprep_h3d.sdf:1235_19
  -OEChem-08212117123D

 58 64  0     1  0  0  0  0  0999 V2000
  -20.9431   -5.1145  -29.5102 C   0  0  0  0  0  0  0  0  0  0  0  0
  -21.7287   -4.3669  -30.3897 C   0  0  0  0  0  0  0  0  0  0  0  0
  -21.0630   -4.8775  -28.1191 C   0  0  0  0  0  0  0  0  0  0  0  0
  -21.9781   -3.9409  -27.5836 C   0  0  0  0  0  0  0  0  0  0  0  0
  -22.5926   -3.4318  -29.8639 C   0  0  0  0  0  0  0  0  0  0  0  0
  -22.7471   -3.1845  -28.4996 C   0  0  0  0  0  0  0  0  0  0  0  0
  -21.9240   -4.2601  -31.7792 C   0  0  0  0  0  0  0  0  0  0  0  0
  -18.9180   -3.7846  -26.1975 C   0  0  0  0  0  0  0  0  0  0  0  0
  -19.2273   -6.0578  -25.0215 C   0  0  0  0  0  0  0  0  0  0  0  0
  -16.9783   -5.2607  -25.7178 C   0  0  0  0  0  0  0  0  0  0  0  0
  -20.4574   -4.4686  -33.7362 C   0  0  0  0  0  0  0  0  0  0  0  0
  -20.1859   -5.6870  -27.2017 C   0  0  0  0  0  0  0  0  0  0  0  0
  -20.7478   -7.8500  -34.9466 C   0  0  0  0  0  0  0  0  0  0  0  0
  -19.5518   -7.9428  -34.0403 C   0  0  0  0  0  0  0  0  0  0  0  0
  -23.0635   -2.8154  -25.6502 C   0  0  0  0  0  0  0  0  0  0  0  0
  -21.3165   -6.4581  -32.8061 C   0  0  0  0  0  0  0  0  0  0  0  0
  -21.2040   -4.4686  -25.2370 C   0  0  2  0  0  0  0  0  0  0  0  0
  -23.4329   -3.1354  -24.1990 C   0  0  1  0  0  0  0  0  0  0  0  0
  -21.0545   -3.5341  -24.0013 C   0  0  2  0  0  0  0  0  0  0  0  0
  -19.8667   -4.9512  -25.8764 C   0  0  0  0  0  0  0  0  0  0  0  0
  -20.4516   -6.7433  -33.9769 C   0  0  0  0  0  0  0  0  0  0  0  0
  -24.4046   -4.3086  -24.0844 C   0  0  0  0  0  0  0  0  0  0  0  0
  -20.0959   -4.0058  -22.9144 C   0  0  0  0  0  0  0  0  0  0  0  0
  -22.8340   -3.3330  -32.0933 N   0  0  0  0  0  0  0  0  0  0  0  0
  -17.5705   -4.1086  -26.2147 N   0  0  0  0  0  0  0  0  0  0  0  0
  -17.8485   -6.1610  -25.1196 N   0  0  0  0  0  0  0  0  0  0  0  0
  -22.0938   -3.7704  -26.2019 N   0  0  3  0  0  0  0  0  0  0  0  0
  -21.2617   -5.0111  -32.7302 N   0  0  0  0  0  0  0  0  0  0  0  0
  -19.3112   -2.6540  -26.4844 O   0  0  0  0  0  0  0  0  0  0  0  0
  -19.8900   -6.8597  -24.3620 O   0  0  0  0  0  0  0  0  0  0  0  0
  -15.7621   -5.4519  -25.7674 O   0  0  0  0  0  0  0  0  0  0  0  0
  -20.2045   -3.2907  -33.9498 O   0  0  0  0  0  0  0  0  0  0  0  0
  -23.2543   -2.8081  -30.8768 O   0  0  0  0  0  0  0  0  0  0  0  0
  -19.9620   -5.5008  -34.4955 O   0  0  0  0  0  0  0  0  0  0  0  0
  -22.3198   -3.3834  -23.3457 O   0  0  0  0  0  0  0  0  0  0  0  0
  -23.5051   -1.6444  -28.1817 Cl  0  0  0  0  0  0  0  0  0  0  0  0
  -20.2456   -5.8572  -29.8871 H   0  0  0  0  0  0  0  0  0  0  0  0
  -20.7031   -6.6365  -27.0057 H   0  0  0  0  0  0  0  0  0  0  0  0
  -19.2503   -5.9400  -27.7190 H   0  0  0  0  0  0  0  0  0  0  0  0
  -20.5691   -7.6692  -35.9994 H   0  0  0  0  0  0  0  0  0  0  0  0
  -21.5834   -8.5078  -34.7409 H   0  0  0  0  0  0  0  0  0  0  0  0
  -19.5913   -8.6624  -33.2318 H   0  0  0  0  0  0  0  0  0  0  0  0
  -18.5716   -7.8225  -34.4853 H   0  0  0  0  0  0  0  0  0  0  0  0
  -23.9801   -2.9290  -26.2674 H   0  0  0  0  0  0  0  0  0  0  0  0
  -22.8623   -1.7418  -25.7548 H   0  0  0  0  0  0  0  0  0  0  0  0
  -22.3545   -6.7686  -32.9602 H   0  0  0  0  0  0  0  0  0  0  0  0
  -20.9234   -6.8799  -31.8759 H   0  0  0  0  0  0  0  0  0  0  0  0
  -21.7713   -5.3546  -24.9121 H   0  0  0  0  0  0  0  0  0  0  0  0
  -23.9928   -2.2348  -23.7658 H   0  0  0  0  0  0  0  0  0  0  0  0
  -20.7210   -2.5263  -24.3104 H   0  0  0  0  0  0  0  0  0  0  0  0
  -23.9438   -5.2141  -24.4791 H   0  0  0  0  0  0  0  0  0  0  0  0
  -25.3119   -4.0977  -24.6504 H   0  0  0  0  0  0  0  0  0  0  0  0
  -24.6692   -4.4726  -23.0398 H   0  0  0  0  0  0  0  0  0  0  0  0
  -20.3812   -5.0006  -22.5721 H   0  0  0  0  0  0  0  0  0  0  0  0
  -20.1246   -3.3189  -22.0686 H   0  0  0  0  0  0  0  0  0  0  0  0
  -19.0792   -4.0440  -23.3052 H   0  0  0  0  0  0  0  0  0  0  0  0
  -16.9477   -3.4273  -26.6378 H   0  0  0  0  0  0  0  0  0  0  0  0
  -17.4222   -6.9585  -24.6567 H   0  0  0  0  0  0  0  0  0  0  0  0
  1  2  2  0  0  0  0
  1  3  1  0  0  0  0
  2  5  1  0  0  0  0
  2  7  1  0  0  0  0
  3  4  2  0  0  0  0
  3 12  1  0  0  0  0
  4  6  1  0  0  0  0
  4 27  1  0  0  0  0
  5  6  2  0  0  0  0
  5 33  1  0  0  0  0
  6 36  1  0  0  0  0
  7 24  2  0  0  0  0
  7 28  1  0  0  0  0
  8 20  1  0  0  0  0
  8 25  1  0  0  0  0
  8 29  2  0  0  0  0
  9 20  1  0  0  0  0
  9 26  1  0  0  0  0
  9 30  2  0  0  0  0
 10 25  1  0  0  0  0
 10 26  1  0  0  0  0
 10 31  2  0  0  0  0
 11 28  1  0  0  0  0
 11 32  2  0  0  0  0
 11 34  1  0  0  0  0
 12 20  1  0  0  0  0
 13 14  1  0  0  0  0
 13 21  1  0  0  0  0
 14 21  1  0  0  0  0
 15 18  1  0  0  0  0
 15 27  1  0  0  0  0
 16 21  1  0  0  0  0
 16 28  1  0  0  0  0
 17 19  1  0  0  0  0
 17 20  1  0  0  0  0
 17 27  1  0  0  0  0
 18 22  1  0  0  0  0
 18 35  1  0  0  0  0
 19 23  1  0  0  0  0
 19 35  1  0  0  0  0
 21 34  1  0  0  0  0
 24 33  1  0  0  0  0
  1 37  1  0  0  0  0
 12 38  1  0  0  0  0
 12 39  1  0  0  0  0
 13 40  1  0  0  0  0
 13 41  1  0  0  0  0
 14 42  1  0  0  0  0
 14 43  1  0  0  0  0
 15 44  1  0  0  0  0
 15 45  1  0  0  0  0
 16 46  1  0  0  0  0
 16 47  1  0  0  0  0
 17 48  1  0  0  0  0
 18 49  1  0  0  0  0
 19 50  1  0  0  0  0
 22 51  1  0  0  0  0
 22 52  1  0  0  0  0
 22 53  1  0  0  0  0
 23 54  1  0  0  0  0
 23 55  1  0  0  0  0
 23 56  1  0  0  0  0
 25 57  1  0  0  0  0
 26 58  1  0  0  0  0
M  END
> <SMILES>
C[C@@H]1CN2[C@H]([C@H](C)O1)C1(Cc3cc4c(noc4c(c32)Cl)N2CC3(CC3)OC2=O)C(=O)NC(=O)NC1=O

> <FORMATTED_ID>
H3D-008433

> <MOLFORMULA>
C23H22ClN5O7

> <Exact Mass>
515.12

> <XLogP>
1.3

> <TPSA_NOPS>
143.6

> <s_m_source_file>
ligprep_h3d.sdf

> <i_m_source_file_index>
1235

> <i_lp_mmshare_version>
55123

> <i_f3d_flags>
0

> <s_epik_input>
Tz1DMVtOSF1DKD1PKVtOSF1DKD1PKUMxMltDQEBIXTNOKFtDSDJdW0NAQEhdKFtDSDNdKU9bQ0BIXTNbQ0gzXSljNGMoW0NIMl0yKVtjSF1jNWMoYzRDbClvbmM1TihDKE82KT1PKVtDSDJdQzY3W0NIMl1bQ0gyXTc=

> <s_epik_cmdline>
J2VwaWtfcHl0aG9uJywgJy1waHQnLCAnMC41JywgJy1waCcsICc3LjUnLCAnLXRuJywgJzgnLCAnLW1hJywgJzUwMCcsICctaW1hZScsICc8aW5maWxlLm1hZT4nLCAnLW9tYWUnLCAnPG91dGZpbGUubWFlPic=

> <r_lp_tautomer_probability>
1

> <r_epik_Ionization_Penalty>
0.369125

> <r_epik_Ionization_Penalty_Charging>
0

> <r_epik_Ionization_Penalty_Neutral>
0.369125

> <r_epik_State_Penalty>
0.366447

> <r_epik_Charging_Adjusted_Penalty>
0.366447

> <i_epik_Tot_Q>
0

> <i_epik_Tot_abs_Q>
0

> <s_epik_Chemistry_Notes>
This compound has an ester and may undergo hydrolysis at high or low pH.

> <s_lp_Force_Field>
S-OPLS

> <r_lp_Energy>
48.7617

> <b_lp_Chiralities_Consistent>
1

> <s_lp_Variant>
ligprep_h3d.sdf:1235-1

> <ROCS_ShapeQuery>
_7L13

> <ROCS_TanimotoCombo>
0.750 

> <ROCS_ShapeTanimoto>
0.614 

> <ROCS_ColorTanimoto>
0.136 

> <ROCS_RefTversky>
0.772 

> <ROCS_RefColorTversky>
0.299 

> <ROCS_RefTverskyCombo>
1.071 

> <ROCS_FitTversky>
0.750 

> <ROCS_FitColorTversky>
0.201 

> <ROCS_FitTverskyCombo>
0.950 

> <ROCS_ColorScore>
-2.766

> <ROCS_Overlap>
1283.710

> <ROCS_Rank>
490                 

$$$$
ligprep_h3d.sdf:4294_450
  -OEChem-08212117123D

 69 75  0     1  0  0  0  0  0999 V2000
  -29.2080   -6.4254  -26.6560 C   0  0  0  0  0  0  0  0  0  0  0  0
  -19.1818   -9.4653  -33.7477 C   0  0  0  0  0  0  0  0  0  0  0  0
  -28.1654   -6.0502  -25.8088 C   0  0  0  0  0  0  0  0  0  0  0  0
  -19.7763   -8.4601  -32.9849 C   0  0  0  0  0  0  0  0  0  0  0  0
  -29.1964   -6.0301  -27.9937 C   0  0  0  0  0  0  0  0  0  0  0  0
  -18.9964   -9.2834  -35.1182 C   0  0  0  0  0  0  0  0  0  0  0  0
  -24.6261   -4.0316  -22.2421 C   0  0  0  0  0  0  0  0  0  0  0  0
  -23.0058   -3.4599  -32.3090 C   0  0  0  0  0  0  0  0  0  0  0  0
  -27.0996   -4.8841  -27.6368 C   0  0  0  0  0  0  0  0  0  0  0  0
  -20.0002   -7.0913  -34.9631 C   0  0  0  0  0  0  0  0  0  0  0  0
  -23.2798   -3.7180  -22.1219 C   0  0  0  0  0  0  0  0  0  0  0  0
  -23.1107   -2.8332  -31.0808 C   0  0  0  0  0  0  0  0  0  0  0  0
  -27.1113   -5.2795  -26.2991 C   0  0  0  0  0  0  0  0  0  0  0  0
  -20.1855   -7.2732  -33.5925 C   0  0  0  0  0  0  0  0  0  0  0  0
  -24.1357   -4.3387  -24.6163 C   0  0  0  0  0  0  0  0  0  0  0  0
  -21.3755   -4.9127  -31.2215 C   0  0  0  0  0  0  0  0  0  0  0  0
  -25.0147   -4.3418  -23.5380 C   0  0  0  0  0  0  0  0  0  0  0  0
  -22.1088   -4.5151  -32.3336 C   0  0  0  0  0  0  0  0  0  0  0  0
  -28.1422   -5.2594  -28.4840 C   0  0  0  0  0  0  0  0  0  0  0  0
  -19.4056   -8.0965  -35.7259 C   0  0  0  0  0  0  0  0  0  0  0  0
  -22.7991   -4.0087  -24.3897 C   0  0  0  0  0  0  0  0  0  0  0  0
  -21.5187   -4.2473  -30.0083 C   0  0  0  0  0  0  0  0  0  0  0  0
  -26.0324   -4.8917  -25.4231 C   0  0  0  0  0  0  0  0  0  0  0  0
  -20.7998   -6.2333  -32.8037 C   0  0  0  0  0  0  0  0  0  0  0  0
  -19.8738   -4.0748  -26.6286 C   0  0  0  0  0  0  0  0  0  0  0  0
  -20.4833   -3.6618  -25.2908 C   0  0  0  0  0  0  0  0  0  0  0  0
  -22.2457   -4.3011  -26.8201 C   0  0  0  0  0  0  0  0  0  0  0  0
  -21.0151   -3.8477  -27.6099 C   0  0  2  0  0  0  0  0  0  0  0  0
  -26.8725   -4.6904  -30.4273 C   0  0  0  0  0  0  0  0  0  0  0  0
  -19.0220   -6.5964  -37.5466 C   0  0  0  0  0  0  0  0  0  0  0  0
  -22.3810   -3.6996  -23.1372 N   0  0  0  0  0  0  0  0  0  0  0  0
  -24.7846   -4.6824  -25.7789 N   0  0  0  0  0  0  0  0  0  0  0  0
  -20.5667   -5.9835  -31.5350 N   0  0  0  0  0  0  0  0  0  0  0  0
  -26.2211   -4.6990  -24.0825 N   0  0  0  0  0  0  0  0  0  0  0  0
  -21.7227   -5.3741  -33.3299 N   0  0  0  0  0  0  0  0  0  0  0  0
  -22.3929   -3.2362  -30.0261 N   0  3  0  0  0  0  0  0  0  0  0  0
  -21.8989   -3.9944  -25.4336 N   0  0  0  0  0  0  0  0  0  0  0  0
  -20.8416   -4.5592  -28.8426 N   0  0  0  0  0  0  0  0  0  0  0  0
  -28.1314   -4.8739  -29.7893 O   0  0  0  0  0  0  0  0  0  0  0  0
  -19.2246   -7.9196  -37.0631 O   0  0  0  0  0  0  0  0  0  0  0  0
  -25.9364   -5.5069  -29.8987 F   0  0  0  0  0  0  0  0  0  0  0  0
  -26.4684   -3.4141  -30.2349 F   0  0  0  0  0  0  0  0  0  0  0  0
  -26.9667   -4.9004  -31.7575 F   0  0  0  0  0  0  0  0  0  0  0  0
  -18.4124   -5.8284  -36.6188 F   0  0  0  0  0  0  0  0  0  0  0  0
  -20.2255   -6.0432  -37.8197 F   0  0  0  0  0  0  0  0  0  0  0  0
  -18.2984   -6.6009  -38.6862 F   0  0  0  0  0  0  0  0  0  0  0  0
  -30.0290   -7.0255  -26.2747 H   0  0  0  0  0  0  0  0  0  0  0  0
  -18.8630  -10.3897  -33.2750 H   0  0  0  0  0  0  0  0  0  0  0  0
  -28.1886   -6.3657  -24.7684 H   0  0  0  0  0  0  0  0  0  0  0  0
  -19.9143   -8.6166  -31.9177 H   0  0  0  0  0  0  0  0  0  0  0  0
  -30.0116   -6.3254  -28.6487 H   0  0  0  0  0  0  0  0  0  0  0  0
  -18.5329  -10.0704  -35.7071 H   0  0  0  0  0  0  0  0  0  0  0  0
  -25.3081   -4.0331  -21.4029 H   0  0  0  0  0  0  0  0  0  0  0  0
  -23.5769   -3.1492  -33.1736 H   0  0  0  0  0  0  0  0  0  0  0  0
  -26.2823   -4.2824  -28.0292 H   0  0  0  0  0  0  0  0  0  0  0  0
  -20.3163   -6.1694  -35.4470 H   0  0  0  0  0  0  0  0  0  0  0  0
  -22.8671   -3.4591  -21.1508 H   0  0  0  0  0  0  0  0  0  0  0  0
  -23.7690   -1.9928  -30.9022 H   0  0  0  0  0  0  0  0  0  0  0  0
  -19.0373   -3.4123  -26.8749 H   0  0  0  0  0  0  0  0  0  0  0  0
  -19.5036   -5.1023  -26.6220 H   0  0  0  0  0  0  0  0  0  0  0  0
  -20.0500   -4.2332  -24.4625 H   0  0  0  0  0  0  0  0  0  0  0  0
  -20.3251   -2.5939  -25.1051 H   0  0  0  0  0  0  0  0  0  0  0  0
  -23.1210   -3.7134  -27.1183 H   0  0  0  0  0  0  0  0  0  0  0  0
  -22.4731   -5.3621  -26.9644 H   0  0  0  0  0  0  0  0  0  0  0  0
  -21.0998   -2.7496  -27.8484 H   0  0  0  0  0  0  0  0  0  0  0  0
  -27.0927   -4.8008  -23.5790 H   0  0  0  0  0  0  0  0  0  0  0  0
  -22.0634   -5.3685  -34.2824 H   0  0  0  0  0  0  0  0  0  0  0  0
  -22.5227   -2.7257  -29.1522 H   0  0  0  0  0  0  0  0  0  0  0  0
  -20.1859   -5.3302  -28.8563 H   0  0  0  0  0  0  0  0  0  0  0  0
  1  3  1  0  0  0  0
  1  5  2  0  0  0  0
  2  4  2  0  0  0  0
  2  6  1  0  0  0  0
  3 13  2  0  0  0  0
  4 14  1  0  0  0  0
  5 19  1  0  0  0  0
  6 20  2  0  0  0  0
  7 11  2  0  0  0  0
  7 17  1  0  0  0  0
  8 12  1  0  0  0  0
  8 18  2  0  0  0  0
  9 13  1  0  0  0  0
  9 19  2  0  0  0  0
 10 14  2  0  0  0  0
 10 20  1  0  0  0  0
 11 31  1  0  0  0  0
 12 36  2  0  0  0  0
 13 23  1  0  0  0  0
 14 24  1  0  0  0  0
 15 17  2  0  0  0  0
 15 21  1  0  0  0  0
 15 32  1  0  0  0  0
 16 18  1  0  0  0  0
 16 22  2  0  0  0  0
 16 33  1  0  0  0  0
 17 34  1  0  0  0  0
 18 35  1  0  0  0  0
 19 39  1  0  0  0  0
 20 40  1  0  0  0  0
 21 31  2  0  0  0  0
 21 37  1  0  0  0  0
 22 36  1  0  0  0  0
 22 38  1  0  0  0  0
 23 32  2  0  0  0  0
 23 34  1  0  0  0  0
 24 33  2  0  0  0  0
 24 35  1  0  0  0  0
 25 26  1  0  0  0  0
 25 28  1  0  0  0  0
 26 37  1  0  0  0  0
 27 28  1  0  0  0  0
 27 37  1  0  0  0  0
 28 38  1  0  0  0  0
 29 39  1  0  0  0  0
 29 41  1  0  0  0  0
 29 42  1  0  0  0  0
 29 43  1  0  0  0  0
 30 40  1  0  0  0  0
 30 44  1  0  0  0  0
 30 45  1  0  0  0  0
 30 46  1  0  0  0  0
  1 47  1  0  0  0  0
  2 48  1  0  0  0  0
  3 49  1  0  0  0  0
  4 50  1  0  0  0  0
  5 51  1  0  0  0  0
  6 52  1  0  0  0  0
  7 53  1  0  0  0  0
  8 54  1  0  0  0  0
  9 55  1  0  0  0  0
 10 56  1  0  0  0  0
 11 57  1  0  0  0  0
 12 58  1  0  0  0  0
 25 59  1  0  0  0  0
 25 60  1  0  0  0  0
 26 61  1  0  0  0  0
 26 62  1  0  0  0  0
 27 63  1  0  0  0  0
 27 64  1  0  0  0  0
 28 65  1  0  0  0  0
 34 66  1  0  0  0  0
 35 67  1  0  0  0  0
 36 68  1  0  0  0  0
 38 69  1  0  0  0  0
M  CHG  1  36   1
M  END
> <SMILES>
FC(F)(F)Oc1cccc(c1)-c1nc2c(nccc2[nH]1)NC1CCN(C1)c1nccc2[nH]c(nc12)-c1cccc(c1)OC(F)(F)F

> <FORMATTED_ID>
H3D-003535

> <MOLFORMULA>
C30H22F6N8O2

> <Exact Mass>
640.18

> <XLogP>
8.65

> <TPSA_NOPS>
116.9

> <s_m_source_file>
ligprep_h3d.sdf

> <i_m_source_file_index>
4294

> <i_lp_mmshare_version>
55123

> <i_f3d_flags>
0

> <s_epik_input>
RkMoRikoRilPYzFbY0hdW2NIXVtjSF1jKFtjSF0xKS1jKG4yKVtuSF1jKGMyMylbY0hdW2NIXW5jM1tOSF1bQ0BASF00W0NIMl1bQ0gyXU4oW0NIMl00KWMobltjSF1bY0hdNSljKGM1NiluYyhbbkhdNiktYzdbY0hdW2NIXVtjSF1jKFtjSF03KU9DKEYpKEYpRg==

> <s_epik_cmdline>
J2VwaWtfcHl0aG9uJywgJy1waHQnLCAnMC41JywgJy1waCcsICc3LjUnLCAnLXRuJywgJzgnLCAnLW1hJywgJzUwMCcsICctaW1hZScsICc8aW5maWxlLm1hZT4nLCAnLW9tYWUnLCAnPG91dGZpbGUubWFlPic=

> <r_lp_tautomer_probability>
0.742559

> <r_epik_Ionization_Penalty>
0.557739

> <r_epik_Ionization_Penalty_Charging>
0.48791

> <r_epik_Ionization_Penalty_Neutral>
0.0698295

> <r_epik_State_Penalty>
0.549316

> <r_epik_Charging_Adjusted_Penalty>
1.03723

> <i_epik_Tot_Q>
1

> <i_epik_Tot_abs_Q>
1

> <s_lp_Force_Field>
S-OPLS

> <r_lp_Energy>
47.2776

> <b_lp_Chiralities_Consistent>
1

> <s_lp_Variant>
ligprep_h3d.sdf:4294-2

> <ROCS_ShapeQuery>
_7L13

> <ROCS_TanimotoCombo>
0.636 

> <ROCS_ShapeTanimoto>
0.505 

> <ROCS_ColorTanimoto>
0.131 

> <ROCS_RefTversky>
0.772 

> <ROCS_RefColorTversky>
0.321 

> <ROCS_RefTverskyCombo>
1.093 

> <ROCS_FitTversky>
0.593 

> <ROCS_FitColorTversky>
0.182 

> <ROCS_FitTverskyCombo>
0.775 

> <ROCS_ColorScore>
-3.023

> <ROCS_Overlap>
1303.357

> <ROCS_Rank>
491                 

$$$$
ligprep_h3d.sdf:725_59
  -OEChem-08212117123D

 59 64  0     1  0  0  0  0  0999 V2000
  -20.8669   -5.0639  -29.5060 C   0  0  0  0  0  0  0  0  0  0  0  0
  -21.6872   -4.3582  -30.3882 C   0  0  0  0  0  0  0  0  0  0  0  0
  -21.0058   -4.8358  -28.1151 C   0  0  0  0  0  0  0  0  0  0  0  0
  -21.9721   -3.9503  -27.5828 C   0  0  0  0  0  0  0  0  0  0  0  0
  -22.6024   -3.4714  -29.8653 C   0  0  0  0  0  0  0  0  0  0  0  0
  -22.7763   -3.2348  -28.5015 C   0  0  0  0  0  0  0  0  0  0  0  0
  -21.8815   -4.2599  -31.7785 C   0  0  0  0  0  0  0  0  0  0  0  0
  -18.9312   -3.6326  -26.1821 C   0  0  0  0  0  0  0  0  0  0  0  0
  -19.1240   -5.9209  -25.0104 C   0  0  0  0  0  0  0  0  0  0  0  0
  -16.9177   -5.0035  -25.6950 C   0  0  0  0  0  0  0  0  0  0  0  0
  -20.0909   -5.5986  -27.1946 C   0  0  0  0  0  0  0  0  0  0  0  0
  -21.5268   -6.3281  -33.1529 C   0  0  0  0  0  0  0  0  0  0  0  0
  -19.8689   -4.5607  -33.2546 C   0  0  0  0  0  0  0  0  0  0  0  0
  -23.1252   -2.8873  -25.6531 C   0  0  0  0  0  0  0  0  0  0  0  0
  -21.1819   -4.4394  -25.2332 C   0  0  2  0  0  0  0  0  0  0  0  0
  -20.2629   -6.8396  -33.8431 C   0  0  2  0  0  0  0  0  0  0  0  0
  -19.6153   -5.5675  -34.3776 C   0  0  1  0  0  0  0  0  0  0  0  0
  -23.4838   -3.2289  -24.2041 C   0  0  1  0  0  0  0  0  0  0  0  0
  -21.0883   -3.5000  -23.9957 C   0  0  2  0  0  0  0  0  0  0  0  0
  -19.8177   -4.8488  -25.8669 C   0  0  0  0  0  0  0  0  0  0  0  0
  -24.3917   -4.4525  -24.0956 C   0  0  0  0  0  0  0  0  0  0  0  0
  -20.1110   -3.9215  -22.9048 C   0  0  0  0  0  0  0  0  0  0  0  0
  -22.8383   -3.3823  -32.0958 N   0  0  0  0  0  0  0  0  0  0  0  0
  -17.5683   -3.8840  -26.1933 N   0  0  0  0  0  0  0  0  0  0  0  0
  -17.7411   -5.9500  -25.1021 N   0  0  0  0  0  0  0  0  0  0  0  0
  -22.1033   -3.7883  -26.2015 N   0  0  3  0  0  0  0  0  0  0  0  0
  -21.1414   -5.0021  -32.6742 N   0  0  0  0  0  0  0  0  0  0  0  0
  -19.3831   -2.5242  -26.4694 O   0  0  0  0  0  0  0  0  0  0  0  0
  -19.7459   -6.7581  -24.3550 O   0  0  0  0  0  0  0  0  0  0  0  0
  -15.6927   -5.1293  -25.7392 O   0  0  0  0  0  0  0  0  0  0  0  0
  -23.2918   -2.8825  -30.8806 O   0  0  0  0  0  0  0  0  0  0  0  0
  -22.3629   -3.4182  -23.3459 O   0  0  0  0  0  0  0  0  0  0  0  0
  -20.5494   -7.7562  -34.8794 O   0  0  0  0  0  0  0  0  0  0  0  0
  -20.2763   -5.1114  -35.5542 O   0  0  0  0  0  0  0  0  0  0  0  0
  -23.6259   -2.2664  -28.1391 F   0  0  0  0  0  0  0  0  0  0  0  0
  -20.1291   -5.7685  -29.8796 H   0  0  0  0  0  0  0  0  0  0  0  0
  -20.5573   -6.5746  -27.0022 H   0  0  0  0  0  0  0  0  0  0  0  0
  -19.1407   -5.8005  -27.7080 H   0  0  0  0  0  0  0  0  0  0  0  0
  -22.3710   -6.2551  -33.8500 H   0  0  0  0  0  0  0  0  0  0  0  0
  -21.8203   -6.9937  -32.3324 H   0  0  0  0  0  0  0  0  0  0  0  0
  -19.0854   -4.6239  -32.4901 H   0  0  0  0  0  0  0  0  0  0  0  0
  -19.9375   -3.5322  -33.6274 H   0  0  0  0  0  0  0  0  0  0  0  0
  -24.0277   -2.9870  -26.2910 H   0  0  0  0  0  0  0  0  0  0  0  0
  -22.8830   -1.8141  -25.6889 H   0  0  0  0  0  0  0  0  0  0  0  0
  -21.7035   -5.3545  -24.9124 H   0  0  0  0  0  0  0  0  0  0  0  0
  -19.6052   -7.3207  -33.1087 H   0  0  0  0  0  0  0  0  0  0  0  0
  -18.5528   -5.6926  -34.6052 H   0  0  0  0  0  0  0  0  0  0  0  0
  -24.0916   -2.3603  -23.7712 H   0  0  0  0  0  0  0  0  0  0  0  0
  -20.8073   -2.4756  -24.3019 H   0  0  0  0  0  0  0  0  0  0  0  0
  -23.8822   -5.3315  -24.4907 H   0  0  0  0  0  0  0  0  0  0  0  0
  -25.3073   -4.2893  -24.6643 H   0  0  0  0  0  0  0  0  0  0  0  0
  -24.6510   -4.6333  -23.0522 H   0  0  0  0  0  0  0  0  0  0  0  0
  -20.3444   -4.9304  -22.5649 H   0  0  0  0  0  0  0  0  0  0  0  0
  -20.1800   -3.2382  -22.0584 H   0  0  0  0  0  0  0  0  0  0  0  0
  -19.0918   -3.9049  -23.2910 H   0  0  0  0  0  0  0  0  0  0  0  0
  -16.9809   -3.1697  -26.6126 H   0  0  0  0  0  0  0  0  0  0  0  0
  -17.2746   -6.7242  -24.6384 H   0  0  0  0  0  0  0  0  0  0  0  0
  -21.0211   -8.5073  -34.4783 H   0  0  0  0  0  0  0  0  0  0  0  0
  -19.8973   -4.2441  -35.7665 H   0  0  0  0  0  0  0  0  0  0  0  0
  1  2  2  0  0  0  0
  1  3  1  0  0  0  0
  2  5  1  0  0  0  0
  2  7  1  0  0  0  0
  3  4  2  0  0  0  0
  3 11  1  0  0  0  0
  4  6  1  0  0  0  0
  4 26  1  0  0  0  0
  5  6  2  0  0  0  0
  5 31  1  0  0  0  0
  6 35  1  0  0  0  0
  7 23  2  0  0  0  0
  7 27  1  0  0  0  0
  8 20  1  0  0  0  0
  8 24  1  0  0  0  0
  8 28  2  0  0  0  0
  9 20  1  0  0  0  0
  9 25  1  0  0  0  0
  9 29  2  0  0  0  0
 10 24  1  0  0  0  0
 10 25  1  0  0  0  0
 10 30  2  0  0  0  0
 11 20  1  0  0  0  0
 12 16  1  0  0  0  0
 12 27  1  0  0  0  0
 13 17  1  0  0  0  0
 13 27  1  0  0  0  0
 14 18  1  0  0  0  0
 14 26  1  0  0  0  0
 15 19  1  0  0  0  0
 15 20  1  0  0  0  0
 15 26  1  0  0  0  0
 16 17  1  0  0  0  0
 16 33  1  0  0  0  0
 17 34  1  0  0  0  0
 18 21  1  0  0  0  0
 18 32  1  0  0  0  0
 19 22  1  0  0  0  0
 19 32  1  0  0  0  0
 23 31  1  0  0  0  0
  1 36  1  0  0  0  0
 11 37  1  0  0  0  0
 11 38  1  0  0  0  0
 12 39  1  0  0  0  0
 12 40  1  0  0  0  0
 13 41  1  0  0  0  0
 13 42  1  0  0  0  0
 14 43  1  0  0  0  0
 14 44  1  0  0  0  0
 15 45  1  0  0  0  0
 16 46  1  0  0  0  0
 17 47  1  0  0  0  0
 18 48  1  0  0  0  0
 19 49  1  0  0  0  0
 21 50  1  0  0  0  0
 21 51  1  0  0  0  0
 21 52  1  0  0  0  0
 22 53  1  0  0  0  0
 22 54  1  0  0  0  0
 22 55  1  0  0  0  0
 24 56  1  0  0  0  0
 25 57  1  0  0  0  0
 33 58  1  0  0  0  0
 34 59  1  0  0  0  0
M  END
> <SMILES>
C[C@@H]1CN2[C@H]([C@H](C)O1)C1(Cc3cc4c(noc4c(c32)F)N2C[C@@H](O)[C@@H](O)C2)C(=O)NC(=O)NC1=O

> <FORMATTED_ID>
H3D-004955

> <MOLFORMULA>
C22H24FN5O7

> <Exact Mass>
489.17

> <XLogP>
-1.33

> <TPSA_NOPS>
157.8

> <s_m_source_file>
ligprep_h3d.sdf

> <i_m_source_file_index>
725

> <i_lp_mmshare_version>
55123

> <i_f3d_flags>
0

> <s_epik_input>
Tz1DMVtOSF1DKD1PKVtOSF1DKD1PKUMxMltDQEBIXTNOKFtDSDJdW0NAQEhdKFtDSDNdKU9bQ0BIXTNbQ0gzXSljNGMoW0NIMl0yKVtjSF1jNWMoYzRGKW9uYzVONltDSDJdW0NAQEhdKFtPSF0pW0NAQEhdKFtPSF0pW0NIMl02

> <s_epik_cmdline>
J2VwaWtfcHl0aG9uJywgJy1waHQnLCAnMC41JywgJy1waCcsICc3LjUnLCAnLXRuJywgJzgnLCAnLW1hJywgJzUwMCcsICctaW1hZScsICc8aW5maWxlLm1hZT4nLCAnLW9tYWUnLCAnPG91dGZpbGUubWFlPic=

> <r_lp_tautomer_probability>
1

> <r_epik_Ionization_Penalty>
0.36913

> <r_epik_Ionization_Penalty_Charging>
0

> <r_epik_Ionization_Penalty_Neutral>
0.36913

> <r_epik_State_Penalty>
0.366447

> <r_epik_Charging_Adjusted_Penalty>
0.366447

> <i_epik_Tot_Q>
0

> <i_epik_Tot_abs_Q>
0

> <s_lp_Force_Field>
S-OPLS

> <r_lp_Energy>
42.4926

> <b_lp_Chiralities_Consistent>
1

> <s_lp_Variant>
ligprep_h3d.sdf:725-1

> <ROCS_ShapeQuery>
_7L13

> <ROCS_TanimotoCombo>
0.747 

> <ROCS_ShapeTanimoto>
0.629 

> <ROCS_ColorTanimoto>
0.118 

> <ROCS_RefTversky>
0.772 

> <ROCS_RefColorTversky>
0.292 

> <ROCS_RefTverskyCombo>
1.064 

> <ROCS_FitTversky>
0.772 

> <ROCS_FitColorTversky>
0.165 

> <ROCS_FitTverskyCombo>
0.938 

> <ROCS_ColorScore>
-2.747

> <ROCS_Overlap>
1281.393

> <ROCS_Rank>
492                 

$$$$
ligprep_h3d.sdf:1405_1490
  -OEChem-08212117123D

 67 70  0     1  0  0  0  0  0999 V2000
  -16.9552   -6.2664  -26.4458 C   0  0  0  0  0  0  0  0  0  0  0  0
  -22.9987   -4.1449  -28.8438 C   0  0  0  0  0  0  0  0  0  0  0  0
  -20.7413   -4.5082  -25.3736 C   0  0  0  0  0  0  0  0  0  0  0  0
  -16.7287   -4.8809  -26.5492 C   0  0  0  0  0  0  0  0  0  0  0  0
  -20.9007   -4.6419  -27.7822 C   0  0  0  0  0  0  0  0  0  0  0  0
  -21.1000   -4.7654  -30.1981 C   0  0  0  0  0  0  0  0  0  0  0  0
  -22.4345   -4.3920  -30.0978 C   0  0  0  0  0  0  0  0  0  0  0  0
  -20.3330   -4.8905  -29.0434 C   0  0  0  0  0  0  0  0  0  0  0  0
  -22.2550   -4.2627  -27.6728 C   0  0  0  0  0  0  0  0  0  0  0  0
  -20.1515   -4.7604  -26.6038 C   0  0  0  0  0  0  0  0  0  0  0  0
  -22.0722   -4.1429  -25.3669 C   0  0  0  0  0  0  0  0  0  0  0  0
  -18.3228   -6.3924  -26.4542 C   0  0  0  0  0  0  0  0  0  0  0  0
  -19.9320   -4.0492  -32.2582 C   0  0  0  0  0  0  0  0  0  0  0  0
  -20.5145   -5.0243  -31.5353 C   0  0  0  0  0  0  0  0  0  0  0  0
  -22.7497   -3.8647  -24.1122 C   0  0  0  0  0  0  0  0  0  0  0  0
  -19.6726   -6.8470  -36.2968 C   0  0  0  0  0  0  0  0  0  0  0  0
  -19.3421   -4.2892  -33.6222 C   0  0  0  0  0  0  0  0  0  0  0  0
  -20.5888   -6.4284  -32.0915 C   0  0  0  0  0  0  0  0  0  0  0  0
  -19.6231   -6.6616  -33.2632 C   0  0  0  0  0  0  0  0  0  0  0  0
  -23.3034   -4.2428  -31.3061 C   0  0  0  0  0  0  0  0  0  0  0  0
  -18.8985   -5.2974  -29.2313 C   0  0  0  0  0  0  0  0  0  0  0  0
  -19.1766   -7.5938  -26.3733 C   0  0  0  0  0  0  0  0  0  0  0  0
  -26.4465   -5.8096  -23.4943 C   0  0  0  0  0  0  0  0  0  0  0  0
  -18.9543   -5.8369  -35.4320 C   0  0  0  0  0  0  0  0  0  0  0  0
  -24.9398   -3.8874  -22.8900 C   0  0  0  0  0  0  0  0  0  0  0  0
  -25.5683   -5.1944  -22.4131 C   0  0  2  0  0  0  0  0  0  0  0  0
  -17.8617   -4.1770  -26.6184 N   0  0  0  0  0  0  0  0  0  0  0  0
  -22.8300   -4.0172  -26.4804 N   0  0  0  0  0  0  0  0  0  0  0  0
  -18.8133   -5.1241  -26.5584 N   0  0  0  0  0  0  0  0  0  0  0  0
  -19.7422   -5.5671  -34.2312 N   0  0  2  0  0  0  0  0  0  0  0  0
  -18.8014   -7.6121  -37.0421 N   0  0  0  0  0  0  0  0  0  0  0  0
  -24.1232   -4.1323  -24.0570 N   0  0  0  0  0  0  0  0  0  0  0  0
  -22.1239   -3.3898  -23.1469 O   0  0  0  0  0  0  0  0  0  0  0  0
  -20.8908   -7.0017  -36.3020 O   0  0  0  0  0  0  0  0  0  0  0  0
  -24.5242   -6.1131  -22.0961 O   0  0  0  0  0  0  0  0  0  0  0  0
  -16.2269   -7.0611  -26.3755 H   0  0  0  0  0  0  0  0  0  0  0  0
  -24.0463   -3.8529  -28.7803 H   0  0  0  0  0  0  0  0  0  0  0  0
  -20.1830   -4.5928  -24.4456 H   0  0  0  0  0  0  0  0  0  0  0  0
  -15.7852   -4.3549  -26.5773 H   0  0  0  0  0  0  0  0  0  0  0  0
  -19.8543   -3.0406  -31.8598 H   0  0  0  0  0  0  0  0  0  0  0  0
  -19.6667   -3.4735  -34.2795 H   0  0  0  0  0  0  0  0  0  0  0  0
  -18.2501   -4.2212  -33.5294 H   0  0  0  0  0  0  0  0  0  0  0  0
  -20.3564   -7.1551  -31.3032 H   0  0  0  0  0  0  0  0  0  0  0  0
  -21.6191   -6.6221  -32.4175 H   0  0  0  0  0  0  0  0  0  0  0  0
  -18.5927   -6.7503  -32.8932 H   0  0  0  0  0  0  0  0  0  0  0  0
  -19.8827   -7.6185  -33.7326 H   0  0  0  0  0  0  0  0  0  0  0  0
  -23.2515   -3.2160  -31.6840 H   0  0  0  0  0  0  0  0  0  0  0  0
  -22.9907   -4.9270  -32.1034 H   0  0  0  0  0  0  0  0  0  0  0  0
  -24.3480   -4.4788  -31.0718 H   0  0  0  0  0  0  0  0  0  0  0  0
  -18.8158   -6.3869  -29.2046 H   0  0  0  0  0  0  0  0  0  0  0  0
  -18.5152   -4.9334  -30.1887 H   0  0  0  0  0  0  0  0  0  0  0  0
  -18.2693   -4.8720  -28.4442 H   0  0  0  0  0  0  0  0  0  0  0  0
  -19.4198   -7.8386  -25.3264 H   0  0  0  0  0  0  0  0  0  0  0  0
  -20.1279   -7.4627  -26.9166 H   0  0  0  0  0  0  0  0  0  0  0  0
  -18.6901   -8.4779  -26.8199 H   0  0  0  0  0  0  0  0  0  0  0  0
  -25.8804   -5.9865  -24.4139 H   0  0  0  0  0  0  0  0  0  0  0  0
  -26.8767   -6.7591  -23.1569 H   0  0  0  0  0  0  0  0  0  0  0  0
  -27.2883   -5.1482  -23.7268 H   0  0  0  0  0  0  0  0  0  0  0  0
  -18.8170   -4.8929  -35.9663 H   0  0  0  0  0  0  0  0  0  0  0  0
  -17.9836   -6.2392  -35.1294 H   0  0  0  0  0  0  0  0  0  0  0  0
  -25.7128   -3.1569  -23.1519 H   0  0  0  0  0  0  0  0  0  0  0  0
  -24.3084   -3.4537  -22.1077 H   0  0  0  0  0  0  0  0  0  0  0  0
  -26.1592   -5.0280  -21.5050 H   0  0  0  0  0  0  0  0  0  0  0  0
  -17.7986   -7.4716  -36.9784 H   0  0  0  0  0  0  0  0  0  0  0  0
  -19.1206   -8.3383  -37.6754 H   0  0  0  0  0  0  0  0  0  0  0  0
  -24.5979   -4.4597  -24.8920 H   0  0  0  0  0  0  0  0  0  0  0  0
  -24.9559   -6.9221  -21.7816 H   0  0  0  0  0  0  0  0  0  0  0  0
  1  4  1  0  0  0  0
  1 12  2  0  0  0  0
  2  7  2  0  0  0  0
  2  9  1  0  0  0  0
  3 10  1  0  0  0  0
  3 11  2  0  0  0  0
  4 27  2  0  0  0  0
  5  8  1  0  0  0  0
  5  9  1  0  0  0  0
  5 10  2  0  0  0  0
  6  7  1  0  0  0  0
  6  8  2  0  0  0  0
  6 14  1  0  0  0  0
  7 20  1  0  0  0  0
  8 21  1  0  0  0  0
  9 28  2  0  0  0  0
 10 29  1  0  0  0  0
 11 15  1  0  0  0  0
 11 28  1  0  0  0  0
 12 22  1  0  0  0  0
 12 29  1  0  0  0  0
 13 14  2  0  0  0  0
 13 17  1  0  0  0  0
 14 18  1  0  0  0  0
 15 32  1  0  0  0  0
 15 33  2  0  0  0  0
 16 24  1  0  0  0  0
 16 31  1  0  0  0  0
 16 34  2  0  0  0  0
 17 30  1  0  0  0  0
 18 19  1  0  0  0  0
 19 30  1  0  0  0  0
 23 26  1  0  0  0  0
 24 30  1  0  0  0  0
 25 26  1  0  0  0  0
 25 32  1  0  0  0  0
 26 35  1  0  0  0  0
 27 29  1  0  0  0  0
  1 36  1  0  0  0  0
  2 37  1  0  0  0  0
  3 38  1  0  0  0  0
  4 39  1  0  0  0  0
 13 40  1  0  0  0  0
 17 41  1  0  0  0  0
 17 42  1  0  0  0  0
 18 43  1  0  0  0  0
 18 44  1  0  0  0  0
 19 45  1  0  0  0  0
 19 46  1  0  0  0  0
 20 47  1  0  0  0  0
 20 48  1  0  0  0  0
 20 49  1  0  0  0  0
 21 50  1  0  0  0  0
 21 51  1  0  0  0  0
 21 52  1  0  0  0  0
 22 53  1  0  0  0  0
 22 54  1  0  0  0  0
 22 55  1  0  0  0  0
 23 56  1  0  0  0  0
 23 57  1  0  0  0  0
 23 58  1  0  0  0  0
 24 59  1  0  0  0  0
 24 60  1  0  0  0  0
 25 61  1  0  0  0  0
 25 62  1  0  0  0  0
 26 63  1  0  0  0  0
 31 64  1  0  0  0  0
 31 65  1  0  0  0  0
 32 66  1  0  0  0  0
 35 67  1  0  0  0  0
M  END
> <SMILES>
C[C@@H](O)CNC(=O)c1cc(c2c(c(c(cc2n1)C)C1=CCN(CC1)CC(=O)N)C)-n1nccc1C

> <FORMATTED_ID>
H3D-009455

> <MOLFORMULA>
C26H32N6O3

> <Exact Mass>
476.25

> <XLogP>
1.65

> <TPSA_NOPS>
126.4

> <s_m_source_file>
ligprep_h3d.sdf

> <i_m_source_file_index>
1405

> <i_lp_mmshare_version>
55123

> <i_f3d_flags>
0

> <s_epik_input>
W0NIM11jMVtjSF1bY0hdbm4xLWMyW2NIXWMoQyg9TylbTkhdW0NIMl1bQ0BASF0oW0NIM10pW09IXSluYyhjMjMpW2NIXWMoW0NIM10pYyhjM1tDSDNdKUM0PVtDSF1bQ0gyXU4oW0NIMl1bQ0gyXTQpW0NIMl1DKD1PKVtOSDJd

> <s_epik_cmdline>
J2VwaWtfcHl0aG9uJywgJy1waHQnLCAnMC41JywgJy1waCcsICc3LjUnLCAnLXRuJywgJzgnLCAnLW1hJywgJzUwMCcsICctaW1hZScsICc8aW5maWxlLm1hZT4nLCAnLW9tYWUnLCAnPG91dGZpbGUubWFlPic=

> <r_lp_tautomer_probability>
1

> <r_epik_Ionization_Penalty>
0.187176

> <r_epik_Ionization_Penalty_Charging>
0

> <r_epik_Ionization_Penalty_Neutral>
0.187176

> <r_epik_State_Penalty>
0.17675

> <r_epik_Charging_Adjusted_Penalty>
0.17675

> <i_epik_Tot_Q>
0

> <i_epik_Tot_abs_Q>
0

> <s_lp_Force_Field>
S-OPLS

> <r_lp_Energy>
56.0239

> <b_lp_Chiralities_Consistent>
1

> <s_lp_Variant>
ligprep_h3d.sdf:1405-1

> <ROCS_ShapeQuery>
_7L13

> <ROCS_TanimotoCombo>
0.746 

> <ROCS_ShapeTanimoto>
0.645 

> <ROCS_ColorTanimoto>
0.101 

> <ROCS_RefTversky>
0.772 

> <ROCS_RefColorTversky>
0.220 

> <ROCS_RefTverskyCombo>
0.992 

> <ROCS_FitTversky>
0.797 

> <ROCS_FitColorTversky>
0.158 

> <ROCS_FitTverskyCombo>
0.955 

> <ROCS_ColorScore>
-2.026

> <ROCS_Overlap>
1279.185

> <ROCS_Rank>
493                 

$$$$
ligprep_h3d.sdf:5448_704
  -OEChem-08212117123D

 61 65  0     0  0  0  0  0  0999 V2000
  -19.1739   -4.3013  -34.1173 C   0  0  0  0  0  0  0  0  0  0  0  0
  -20.1014   -4.0461  -33.1072 C   0  0  0  0  0  0  0  0  0  0  0  0
  -19.2036   -5.5171  -34.8004 C   0  0  0  0  0  0  0  0  0  0  0  0
  -18.3108   -4.1357  -26.5262 C   0  0  0  0  0  0  0  0  0  0  0  0
  -18.7094   -5.8097  -24.8459 C   0  0  0  0  0  0  0  0  0  0  0  0
  -23.6450   -3.9647  -27.7827 C   0  0  0  0  0  0  0  0  0  0  0  0
  -21.0882   -6.2224  -33.4634 C   0  0  0  0  0  0  0  0  0  0  0  0
  -20.9354   -4.3290  -28.4560 C   0  0  0  0  0  0  0  0  0  0  0  0
  -16.9560   -4.2875  -26.2791 C   0  0  0  0  0  0  0  0  0  0  0  0
  -17.3366   -5.8867  -24.6742 C   0  0  0  0  0  0  0  0  0  0  0  0
  -22.7044   -4.2979  -26.8155 C   0  0  0  0  0  0  0  0  0  0  0  0
  -21.0585   -5.0066  -32.7803 C   0  0  0  0  0  0  0  0  0  0  0  0
  -19.1976   -4.9151  -25.7917 C   0  0  0  0  0  0  0  0  0  0  0  0
  -21.3493   -4.4646  -27.1366 C   0  0  0  0  0  0  0  0  0  0  0  0
  -23.2222   -3.8161  -29.1021 C   0  0  0  0  0  0  0  0  0  0  0  0
  -21.8764   -4.0014  -29.4371 C   0  0  0  0  0  0  0  0  0  0  0  0
  -20.1607   -6.4777  -34.4735 C   0  0  0  0  0  0  0  0  0  0  0  0
  -23.1063   -3.1290  -24.6388 C   0  0  0  0  0  0  0  0  0  0  0  0
  -24.0953   -5.4244  -25.0110 C   0  0  0  0  0  0  0  0  0  0  0  0
  -21.5490   -5.1519  -24.9515 C   0  0  0  0  0  0  0  0  0  0  0  0
  -23.4043   -3.2498  -23.1477 C   0  0  0  0  0  0  0  0  0  0  0  0
  -24.3413   -5.5487  -23.5130 C   0  0  0  0  0  0  0  0  0  0  0  0
  -22.9135   -4.4935  -25.3336 C   0  0  0  0  0  0  0  0  0  0  0  0
  -24.9692   -4.2447  -21.4837 C   0  0  0  0  0  0  0  0  0  0  0  0
  -24.3442   -2.1023  -30.3103 C   0  0  0  0  0  0  0  0  0  0  0  0
  -22.0557   -4.7308  -31.6936 C   0  0  0  0  0  0  0  0  0  0  0  0
  -16.4442   -5.1460  -25.3688 N   0  0  0  0  0  0  0  0  0  0  0  0
  -20.5749   -4.7994  -26.0028 N   0  0  0  0  0  0  0  0  0  0  0  0
  -24.5762   -4.1748  -22.9340 N   0  3  0  0  0  0  0  0  0  0  0  0
  -24.1331   -3.4905  -30.0622 O   0  0  0  0  0  0  0  0  0  0  0  0
  -21.4656   -3.8616  -30.7301 O   0  0  0  0  0  0  0  0  0  0  0  0
  -20.1891   -7.6454  -35.1291 F   0  0  0  0  0  0  0  0  0  0  0  0
  -18.4288   -3.5533  -34.3723 H   0  0  0  0  0  0  0  0  0  0  0  0
  -20.0704   -3.0960  -32.5802 H   0  0  0  0  0  0  0  0  0  0  0  0
  -18.4812   -5.7159  -35.5863 H   0  0  0  0  0  0  0  0  0  0  0  0
  -18.6591   -3.4286  -27.2716 H   0  0  0  0  0  0  0  0  0  0  0  0
  -19.3735   -6.4326  -24.2560 H   0  0  0  0  0  0  0  0  0  0  0  0
  -24.6875   -3.8170  -27.5195 H   0  0  0  0  0  0  0  0  0  0  0  0
  -21.8304   -6.9766  -33.2162 H   0  0  0  0  0  0  0  0  0  0  0  0
  -19.8930   -4.4688  -28.7277 H   0  0  0  0  0  0  0  0  0  0  0  0
  -16.2231   -3.7031  -26.8257 H   0  0  0  0  0  0  0  0  0  0  0  0
  -16.9049   -6.5691  -23.9494 H   0  0  0  0  0  0  0  0  0  0  0  0
  -23.9348   -2.5860  -25.1146 H   0  0  0  0  0  0  0  0  0  0  0  0
  -22.2186   -2.4973  -24.7736 H   0  0  0  0  0  0  0  0  0  0  0  0
  -23.9281   -6.4227  -25.4353 H   0  0  0  0  0  0  0  0  0  0  0  0
  -25.0137   -5.0508  -25.4830 H   0  0  0  0  0  0  0  0  0  0  0  0
  -21.1882   -4.8293  -23.9687 H   0  0  0  0  0  0  0  0  0  0  0  0
  -21.6443   -6.2465  -24.9204 H   0  0  0  0  0  0  0  0  0  0  0  0
  -22.5564   -3.6513  -22.5835 H   0  0  0  0  0  0  0  0  0  0  0  0
  -23.6789   -2.2734  -22.7346 H   0  0  0  0  0  0  0  0  0  0  0  0
  -25.2410   -6.1429  -23.3217 H   0  0  0  0  0  0  0  0  0  0  0  0
  -23.4914   -5.9950  -22.9854 H   0  0  0  0  0  0  0  0  0  0  0  0
  -24.1316   -4.6742  -20.9311 H   0  0  0  0  0  0  0  0  0  0  0  0
  -25.1826   -3.2287  -21.1460 H   0  0  0  0  0  0  0  0  0  0  0  0
  -25.8553   -4.8778  -21.4078 H   0  0  0  0  0  0  0  0  0  0  0  0
  -25.0932   -1.9817  -31.0968 H   0  0  0  0  0  0  0  0  0  0  0  0
  -23.4026   -1.6384  -30.6148 H   0  0  0  0  0  0  0  0  0  0  0  0
  -24.7022   -1.6278  -29.3936 H   0  0  0  0  0  0  0  0  0  0  0  0
  -22.9557   -4.2561  -32.0990 H   0  0  0  0  0  0  0  0  0  0  0  0
  -22.3589   -5.6607  -31.2004 H   0  0  0  0  0  0  0  0  0  0  0  0
  -25.3797   -3.7678  -23.4322 H   0  0  0  0  0  0  0  0  0  0  0  0
  1  2  1  0  0  0  0
  1  3  2  0  0  0  0
  2 12  2  0  0  0  0
  3 17  1  0  0  0  0
  4  9  1  0  0  0  0
  4 13  2  0  0  0  0
  5 10  2  0  0  0  0
  5 13  1  0  0  0  0
  6 11  1  0  0  0  0
  6 15  2  0  0  0  0
  7 12  1  0  0  0  0
  7 17  2  0  0  0  0
  8 14  1  0  0  0  0
  8 16  2  0  0  0  0
  9 27  2  0  0  0  0
 10 27  1  0  0  0  0
 11 14  2  0  0  0  0
 11 23  1  0  0  0  0
 12 26  1  0  0  0  0
 13 28  1  0  0  0  0
 14 28  1  0  0  0  0
 15 16  1  0  0  0  0
 15 30  1  0  0  0  0
 16 31  1  0  0  0  0
 17 32  1  0  0  0  0
 18 21  1  0  0  0  0
 18 23  1  0  0  0  0
 19 22  1  0  0  0  0
 19 23  1  0  0  0  0
 20 23  1  0  0  0  0
 20 28  1  0  0  0  0
 21 29  1  0  0  0  0
 22 29  1  0  0  0  0
 24 29  1  0  0  0  0
 25 30  1  0  0  0  0
 26 31  1  0  0  0  0
  1 33  1  0  0  0  0
  2 34  1  0  0  0  0
  3 35  1  0  0  0  0
  4 36  1  0  0  0  0
  5 37  1  0  0  0  0
  6 38  1  0  0  0  0
  7 39  1  0  0  0  0
  8 40  1  0  0  0  0
  9 41  1  0  0  0  0
 10 42  1  0  0  0  0
 18 43  1  0  0  0  0
 18 44  1  0  0  0  0
 19 45  1  0  0  0  0
 19 46  1  0  0  0  0
 20 47  1  0  0  0  0
 20 48  1  0  0  0  0
 21 49  1  0  0  0  0
 21 50  1  0  0  0  0
 22 51  1  0  0  0  0
 22 52  1  0  0  0  0
 24 53  1  0  0  0  0
 24 54  1  0  0  0  0
 24 55  1  0  0  0  0
 25 56  1  0  0  0  0
 25 57  1  0  0  0  0
 25 58  1  0  0  0  0
 26 59  1  0  0  0  0
 26 60  1  0  0  0  0
 29 61  1  0  0  0  0
M  CHG  1  29   1
M  END
> <SMILES>
COc1cc2c(cc1OCc1cccc(c1)F)N(CC12CCN(C)CC1)c1ccncc1

> <FORMATTED_ID>
H3D-016166

> <MOLFORMULA>
C26H28FN3O2

> <Exact Mass>
433.22

> <XLogP>
5

> <TPSA_NOPS>
37.8

> <s_m_source_file>
ligprep_h3d.sdf

> <i_m_source_file_index>
5448

> <i_lp_mmshare_version>
55123

> <i_f3d_flags>
0

> <s_epik_input>
W2NIXTFjKEYpW2NIXVtjSF1bY0hdYzFbQ0gyXU9jKGMoW2NIXTIpT1tDSDNdKVtjSF1jKGMyQzM0W0NIMl1bQ0gyXU4oW0NIM10pW0NIMl1bQ0gyXTQpTihbQ0gyXTMpYzVbY0hdW2NIXW5bY0hdW2NIXTU=

> <s_epik_cmdline>
J2VwaWtfcHl0aG9uJywgJy1waHQnLCAnMC41JywgJy1waCcsICc3LjUnLCAnLXRuJywgJzgnLCAnLW1hJywgJzUwMCcsICctaW1hZScsICc8aW5maWxlLm1hZT4nLCAnLW9tYWUnLCAnPG91dGZpbGUubWFlPic=

> <r_lp_tautomer_probability>
1

> <r_epik_Ionization_Penalty>
0.130099

> <r_epik_Ionization_Penalty_Charging>
0.00689193

> <r_epik_Ionization_Penalty_Neutral>
0.123207

> <r_epik_State_Penalty>
0.112704

> <r_epik_Charging_Adjusted_Penalty>
0.119596

> <i_epik_Tot_Q>
1

> <i_epik_Tot_abs_Q>
1

> <s_lp_Force_Field>
S-OPLS

> <r_lp_Energy>
70.0312

> <b_lp_Chiralities_Consistent>
1

> <s_lp_Variant>
ligprep_h3d.sdf:5448-1

> <ROCS_ShapeQuery>
_7L13

> <ROCS_TanimotoCombo>
0.795 

> <ROCS_ShapeTanimoto>
0.687 

> <ROCS_ColorTanimoto>
0.109 

> <ROCS_RefTversky>
0.772 

> <ROCS_RefColorTversky>
0.206 

> <ROCS_RefTverskyCombo>
0.978 

> <ROCS_FitTversky>
0.862 

> <ROCS_FitColorTversky>
0.187 

> <ROCS_FitTverskyCombo>
1.049 

> <ROCS_ColorScore>
-1.863

> <ROCS_Overlap>
1274.038

> <ROCS_Rank>
494                 

$$$$
ligprep_h3d.sdf:4952_1598
  -OEChem-08212117123D

 73 77  0     1  0  0  0  0  0999 V2000
  -22.5017   -3.7899  -34.7502 C   0  0  0  0  0  0  0  0  0  0  0  0
  -24.9173   -4.1566  -25.2633 C   0  0  0  0  0  0  0  0  0  0  0  0
  -23.4523   -5.2898  -23.7119 C   0  0  0  0  0  0  0  0  0  0  0  0
  -21.8261   -4.0817  -35.9351 C   0  0  0  0  0  0  0  0  0  0  0  0
  -25.8157   -3.9001  -24.2276 C   0  0  0  0  0  0  0  0  0  0  0  0
  -24.3507   -5.0332  -22.6761 C   0  0  0  0  0  0  0  0  0  0  0  0
  -21.4362   -5.6748  -33.6784 C   0  0  0  0  0  0  0  0  0  0  0  0
  -17.1420   -5.7381  -26.4811 C   0  0  0  0  0  0  0  0  0  0  0  0
  -17.6805   -3.8025  -25.1394 C   0  0  0  0  0  0  0  0  0  0  0  0
  -15.7650   -5.1646  -24.5805 C   0  0  0  0  0  0  0  0  0  0  0  0
  -22.3067   -4.5864  -33.6218 C   0  0  0  0  0  0  0  0  0  0  0  0
  -20.7606   -5.9667  -34.8633 C   0  0  0  0  0  0  0  0  0  0  0  0
  -17.9600   -4.6389  -26.2201 C   0  0  0  0  0  0  0  0  0  0  0  0
  -23.7356   -4.8515  -25.0054 C   0  0  0  0  0  0  0  0  0  0  0  0
  -20.9555   -5.1701  -35.9916 C   0  0  0  0  0  0  0  0  0  0  0  0
  -25.5324   -4.3383  -22.9340 C   0  0  0  0  0  0  0  0  0  0  0  0
  -16.0445   -6.0010  -25.6612 C   0  0  0  0  0  0  0  0  0  0  0  0
  -16.5830   -4.0654  -24.3195 C   0  0  0  0  0  0  0  0  0  0  0  0
  -22.2515   -3.3282  -31.4676 C   0  0  0  0  0  0  0  0  0  0  0  0
  -22.1797   -5.1663  -29.7202 C   0  0  0  0  0  0  0  0  0  0  0  0
  -19.2934   -4.6317  -28.4245 C   0  0  0  0  0  0  0  0  0  0  0  0
  -20.1724   -3.4972  -26.8845 C   0  0  0  0  0  0  0  0  0  0  0  0
  -21.1175   -3.0235  -29.2860 C   0  0  0  0  0  0  0  0  0  0  0  0
  -21.8236   -5.1175  -28.2353 C   0  0  1  0  0  0  0  0  0  0  0  0
  -20.7206   -4.0462  -28.2251 C   0  0  0  0  0  0  0  0  0  0  0  0
  -19.7806   -7.8652  -33.5287 C   0  0  0  0  0  0  0  0  0  0  0  0
  -18.3790   -6.6879  -35.2567 C   0  0  0  0  0  0  0  0  0  0  0  0
  -20.1926   -8.2400  -35.9518 C   0  0  0  0  0  0  0  0  0  0  0  0
  -23.0324   -4.2712  -32.3477 C   0  0  0  0  0  0  0  0  0  0  0  0
  -23.0305   -4.7053  -27.3944 C   0  0  0  0  0  0  0  0  0  0  0  0
  -19.8314   -7.1348  -34.9058 C   0  0  0  0  0  0  0  0  0  0  0  0
  -19.0629   -4.3740  -27.0442 N   0  0  0  0  0  0  0  0  0  0  0  0
  -21.8841   -3.8281  -30.2285 N   0  0  0  0  0  0  0  0  0  0  0  0
  -22.8360   -5.1085  -26.0426 N   0  0  0  0  0  0  0  0  0  0  0  0
  -21.9821   -2.1913  -31.8593 O   0  0  0  0  0  0  0  0  0  0  0  0
  -20.3050   -5.4416  -37.1577 O   0  0  0  0  0  0  0  0  0  0  0  0
  -26.3951   -4.0920  -21.9394 F   0  0  0  0  0  0  0  0  0  0  0  0
  -15.2581   -7.0556  -25.9133 F   0  0  0  0  0  0  0  0  0  0  0  0
  -16.3135   -3.2610  -23.2829 F   0  0  0  0  0  0  0  0  0  0  0  0
  -23.1776   -2.9395  -34.7146 H   0  0  0  0  0  0  0  0  0  0  0  0
  -25.1479   -3.8103  -26.2675 H   0  0  0  0  0  0  0  0  0  0  0  0
  -22.5346   -5.8323  -23.4998 H   0  0  0  0  0  0  0  0  0  0  0  0
  -21.9814   -3.4556  -36.8096 H   0  0  0  0  0  0  0  0  0  0  0  0
  -26.7357   -3.3589  -24.4279 H   0  0  0  0  0  0  0  0  0  0  0  0
  -24.1307   -5.3744  -21.6689 H   0  0  0  0  0  0  0  0  0  0  0  0
  -21.2846   -6.2950  -32.7980 H   0  0  0  0  0  0  0  0  0  0  0  0
  -17.3501   -6.3957  -27.3209 H   0  0  0  0  0  0  0  0  0  0  0  0
  -18.3109   -2.9427  -24.9276 H   0  0  0  0  0  0  0  0  0  0  0  0
  -14.9095   -5.3690  -23.9435 H   0  0  0  0  0  0  0  0  0  0  0  0
  -21.5228   -5.8593  -30.2571 H   0  0  0  0  0  0  0  0  0  0  0  0
  -23.2171   -5.4441  -29.9255 H   0  0  0  0  0  0  0  0  0  0  0  0
  -19.2465   -5.7016  -28.6600 H   0  0  0  0  0  0  0  0  0  0  0  0
  -18.6181   -4.0793  -29.0848 H   0  0  0  0  0  0  0  0  0  0  0  0
  -19.8882   -2.4410  -26.8711 H   0  0  0  0  0  0  0  0  0  0  0  0
  -20.7668   -3.7392  -25.9962 H   0  0  0  0  0  0  0  0  0  0  0  0
  -21.7847   -2.2522  -28.8823 H   0  0  0  0  0  0  0  0  0  0  0  0
  -20.2695   -2.5397  -29.7832 H   0  0  0  0  0  0  0  0  0  0  0  0
  -21.4631   -6.0910  -27.8874 H   0  0  0  0  0  0  0  0  0  0  0  0
  -19.1045   -8.7281  -33.5328 H   0  0  0  0  0  0  0  0  0  0  0  0
  -19.4400   -7.1958  -32.7312 H   0  0  0  0  0  0  0  0  0  0  0  0
  -20.7789   -8.2247  -33.2524 H   0  0  0  0  0  0  0  0  0  0  0  0
  -17.6929   -7.5412  -35.2893 H   0  0  0  0  0  0  0  0  0  0  0  0
  -18.3144   -6.1878  -36.2302 H   0  0  0  0  0  0  0  0  0  0  0  0
  -18.0023   -5.9915  -34.4983 H   0  0  0  0  0  0  0  0  0  0  0  0
  -19.4821   -9.0754  -35.9449 H   0  0  0  0  0  0  0  0  0  0  0  0
  -21.1848   -8.6601  -35.7494 H   0  0  0  0  0  0  0  0  0  0  0  0
  -20.1964   -7.8293  -36.9682 H   0  0  0  0  0  0  0  0  0  0  0  0
  -24.0011   -3.8193  -32.5679 H   0  0  0  0  0  0  0  0  0  0  0  0
  -23.2351   -5.1819  -31.7820 H   0  0  0  0  0  0  0  0  0  0  0  0
  -23.1167   -3.6223  -27.4635 H   0  0  0  0  0  0  0  0  0  0  0  0
  -23.9031   -5.1974  -27.8201 H   0  0  0  0  0  0  0  0  0  0  0  0
  -21.9869   -5.6231  -25.7946 H   0  0  0  0  0  0  0  0  0  0  0  0
  -20.5530   -4.7959  -37.8377 H   0  0  0  0  0  0  0  0  0  0  0  0
  1  4  1  0  0  0  0
  1 11  2  0  0  0  0
  2  5  1  0  0  0  0
  2 14  2  0  0  0  0
  3  6  2  0  0  0  0
  3 14  1  0  0  0  0
  4 15  2  0  0  0  0
  5 16  2  0  0  0  0
  6 16  1  0  0  0  0
  7 11  1  0  0  0  0
  7 12  2  0  0  0  0
  8 13  2  0  0  0  0
  8 17  1  0  0  0  0
  9 13  1  0  0  0  0
  9 18  2  0  0  0  0
 10 17  2  0  0  0  0
 10 18  1  0  0  0  0
 11 29  1  0  0  0  0
 12 15  1  0  0  0  0
 12 31  1  0  0  0  0
 13 32  1  0  0  0  0
 14 34  1  0  0  0  0
 15 36  1  0  0  0  0
 16 37  1  0  0  0  0
 17 38  1  0  0  0  0
 18 39  1  0  0  0  0
 19 29  1  0  0  0  0
 19 33  1  0  0  0  0
 19 35  2  0  0  0  0
 20 24  1  0  0  0  0
 20 33  1  0  0  0  0
 21 25  1  0  0  0  0
 21 32  1  0  0  0  0
 22 25  1  0  0  0  0
 22 32  1  0  0  0  0
 23 25  1  0  0  0  0
 23 33  1  0  0  0  0
 24 25  1  0  0  0  0
 24 30  1  0  0  0  0
 26 31  1  0  0  0  0
 27 31  1  0  0  0  0
 28 31  1  0  0  0  0
 30 34  1  0  0  0  0
  1 40  1  0  0  0  0
  2 41  1  0  0  0  0
  3 42  1  0  0  0  0
  4 43  1  0  0  0  0
  5 44  1  0  0  0  0
  6 45  1  0  0  0  0
  7 46  1  0  0  0  0
  8 47  1  0  0  0  0
  9 48  1  0  0  0  0
 10 49  1  0  0  0  0
 20 50  1  0  0  0  0
 20 51  1  0  0  0  0
 21 52  1  0  0  0  0
 21 53  1  0  0  0  0
 22 54  1  0  0  0  0
 22 55  1  0  0  0  0
 23 56  1  0  0  0  0
 23 57  1  0  0  0  0
 24 58  1  0  0  0  0
 26 59  1  0  0  0  0
 26 60  1  0  0  0  0
 26 61  1  0  0  0  0
 27 62  1  0  0  0  0
 27 63  1  0  0  0  0
 27 64  1  0  0  0  0
 28 65  1  0  0  0  0
 28 66  1  0  0  0  0
 28 67  1  0  0  0  0
 29 68  1  0  0  0  0
 29 69  1  0  0  0  0
 30 70  1  0  0  0  0
 30 71  1  0  0  0  0
 34 72  1  0  0  0  0
 36 73  1  0  0  0  0
M  END
> <SMILES>
CC(C)(C)c1cc(ccc1O)CC(=O)N1CC(CNc2ccc(cc2)F)C2(C1)CN(C2)c1cc(cc(c1)F)F

> <FORMATTED_ID>
H3D-008525

> <MOLFORMULA>
C31H34F3N3O2

> <Exact Mass>
537.26

> <XLogP>
6.19

> <TPSA_NOPS>
55.8

> <s_m_source_file>
ligprep_h3d.sdf

> <i_m_source_file_index>
4952

> <i_lp_mmshare_version>
55123

> <i_f3d_flags>
0

> <s_epik_input>
W0NIM11DKFtDSDNdKShbQ0gzXSljMVtjSF1jKFtjSF1bY0hdYzFbT0hdKVtDSDJdQyg9TylOKFtDSDJdMilbQ0gyXVtDQEhdKFtDSDJdW05IXWMzW2NIXVtjSF1jKEYpW2NIXVtjSF0zKUMyNFtDSDJdTihbQ0gyXTQpYzVbY0hdYyhGKVtjSF1jKEYpW2NIXTU=

> <s_epik_cmdline>
J2VwaWtfcHl0aG9uJywgJy1waHQnLCAnMC41JywgJy1waCcsICc3LjUnLCAnLXRuJywgJzgnLCAnLW1hJywgJzUwMCcsICctaW1hZScsICc8aW5maWxlLm1hZT4nLCAnLW9tYWUnLCAnPG91dGZpbGUubWFlPic=

> <r_lp_tautomer_probability>
1

> <r_epik_Ionization_Penalty>
0.00262006

> <r_epik_Ionization_Penalty_Charging>
0

> <r_epik_Ionization_Penalty_Neutral>
0.00262006

> <r_epik_State_Penalty>
-0

> <r_epik_Charging_Adjusted_Penalty>
0

> <i_epik_Tot_Q>
0

> <i_epik_Tot_abs_Q>
0

> <s_lp_Force_Field>
S-OPLS

> <r_lp_Energy>
41.4111

> <b_lp_Chiralities_Consistent>
1

> <s_lp_Variant>
ligprep_h3d.sdf:4952-1

> <ROCS_ShapeQuery>
_7L13

> <ROCS_TanimotoCombo>
0.659 

> <ROCS_ShapeTanimoto>
0.599 

> <ROCS_ColorTanimoto>
0.060 

> <ROCS_RefTversky>
0.772 

> <ROCS_RefColorTversky>
0.119 

> <ROCS_RefTverskyCombo>
0.890 

> <ROCS_FitTversky>
0.728 

> <ROCS_FitColorTversky>
0.108 

> <ROCS_FitTverskyCombo>
0.836 

> <ROCS_ColorScore>
-1.075

> <ROCS_Overlap>
1285.646

> <ROCS_Rank>
495                 

$$$$
ligprep_h3d.sdf:1088_1400
  -OEChem-08212117123D

 68 73  0     1  0  0  0  0  0999 V2000
  -16.6405   -5.2250  -26.3095 C   0  0  0  0  0  0  0  0  0  0  0  0
  -22.9846   -4.1364  -28.8868 C   0  0  0  0  0  0  0  0  0  0  0  0
  -20.7126   -4.5450  -25.4312 C   0  0  0  0  0  0  0  0  0  0  0  0
  -17.1145   -6.3976  -26.9275 C   0  0  0  0  0  0  0  0  0  0  0  0
  -20.8879   -4.6677  -27.8393 C   0  0  0  0  0  0  0  0  0  0  0  0
  -22.4314   -4.3871  -30.1450 C   0  0  0  0  0  0  0  0  0  0  0  0
  -20.3313   -4.9199  -29.1047 C   0  0  0  0  0  0  0  0  0  0  0  0
  -22.2359   -4.2692  -27.7207 C   0  0  0  0  0  0  0  0  0  0  0  0
  -20.1338   -4.8013  -26.6658 C   0  0  0  0  0  0  0  0  0  0  0  0
  -21.1031   -4.7794  -30.2544 C   0  0  0  0  0  0  0  0  0  0  0  0
  -22.0380   -4.1605  -25.4154 C   0  0  0  0  0  0  0  0  0  0  0  0
  -17.7627   -4.4538  -26.1300 C   0  0  0  0  0  0  0  0  0  0  0  0
  -22.7050   -3.8778  -24.1560 C   0  0  0  0  0  0  0  0  0  0  0  0
  -19.4428   -4.1127  -33.5190 C   0  0  0  0  0  0  0  0  0  0  0  0
  -19.5174   -6.5961  -33.1159 C   0  0  0  0  0  0  0  0  0  0  0  0
  -26.4091   -3.7582  -23.1985 C   0  0  0  0  0  0  0  0  0  0  0  0
  -25.2015   -5.1313  -22.0726 C   0  0  0  0  0  0  0  0  0  0  0  0
  -20.5498   -3.9203  -32.4841 C   0  0  0  0  0  0  0  0  0  0  0  0
  -20.6154   -6.3874  -32.0729 C   0  0  0  0  0  0  0  0  0  0  0  0
  -18.5999   -5.7195  -35.3489 C   0  0  0  0  0  0  0  0  0  0  0  0
  -20.6592   -5.6408  -35.2432 C   0  0  0  0  0  0  0  0  0  0  0  0
  -24.8976   -3.8712  -22.9097 C   0  0  1  0  0  0  0  0  0  0  0  0
  -26.5655   -5.2377  -22.7873 C   0  0  2  0  0  0  0  0  0  0  0  0
  -19.5625   -5.4881  -34.1668 C   0  0  0  0  0  0  0  0  0  0  0  0
  -23.2955   -4.2256  -31.3537 C   0  0  0  0  0  0  0  0  0  0  0  0
  -18.9065   -5.3477  -29.3110 C   0  0  0  0  0  0  0  0  0  0  0  0
  -17.9205   -3.1127  -25.5338 C   0  0  0  0  0  0  0  0  0  0  0  0
  -18.4350   -6.3777  -27.1270 N   0  0  0  0  0  0  0  0  0  0  0  0
  -22.8004   -4.0197  -26.5240 N   0  0  0  0  0  0  0  0  0  0  0  0
  -18.8004   -5.1832  -26.6315 N   0  0  0  0  0  0  0  0  0  0  0  0
  -20.5549   -5.0294  -31.5186 N   0  0  0  0  0  0  0  0  0  0  0  0
  -24.0819   -4.1258  -24.0947 N   0  0  0  0  0  0  0  0  0  0  0  0
  -22.0674   -3.4161  -23.1921 O   0  0  0  0  0  0  0  0  0  0  0  0
  -19.6929   -6.1028  -36.2172 O   0  0  0  0  0  0  0  0  0  0  0  0
  -26.6515   -6.1944  -23.8619 O   0  0  0  0  0  0  0  0  0  0  0  0
  -15.6263   -4.9759  -26.0334 H   0  0  0  0  0  0  0  0  0  0  0  0
  -24.0272   -3.8282  -28.8167 H   0  0  0  0  0  0  0  0  0  0  0  0
  -20.1502   -4.6400  -24.5066 H   0  0  0  0  0  0  0  0  0  0  0  0
  -16.5526   -7.2659  -27.2406 H   0  0  0  0  0  0  0  0  0  0  0  0
  -19.5067   -3.3161  -34.2699 H   0  0  0  0  0  0  0  0  0  0  0  0
  -18.4644   -4.0084  -33.0325 H   0  0  0  0  0  0  0  0  0  0  0  0
  -18.5391   -6.6007  -32.6181 H   0  0  0  0  0  0  0  0  0  0  0  0
  -19.6397   -7.5834  -33.5778 H   0  0  0  0  0  0  0  0  0  0  0  0
  -26.9500   -3.0377  -22.5704 H   0  0  0  0  0  0  0  0  0  0  0  0
  -26.6679   -3.5576  -24.2498 H   0  0  0  0  0  0  0  0  0  0  0  0
  -24.5325   -5.9859  -22.2588 H   0  0  0  0  0  0  0  0  0  0  0  0
  -25.2527   -4.9680  -20.9877 H   0  0  0  0  0  0  0  0  0  0  0  0
  -20.3866   -2.9665  -31.9671 H   0  0  0  0  0  0  0  0  0  0  0  0
  -21.5257   -3.8649  -32.9837 H   0  0  0  0  0  0  0  0  0  0  0  0
  -21.6008   -6.5536  -32.5266 H   0  0  0  0  0  0  0  0  0  0  0  0
  -20.4890   -7.1308  -31.2760 H   0  0  0  0  0  0  0  0  0  0  0  0
  -18.0865   -4.8337  -35.7371 H   0  0  0  0  0  0  0  0  0  0  0  0
  -17.8761   -6.5314  -35.2303 H   0  0  0  0  0  0  0  0  0  0  0  0
  -21.4262   -6.3963  -35.0507 H   0  0  0  0  0  0  0  0  0  0  0  0
  -21.1395   -4.7159  -35.5788 H   0  0  0  0  0  0  0  0  0  0  0  0
  -24.4966   -3.0398  -22.3252 H   0  0  0  0  0  0  0  0  0  0  0  0
  -27.4032   -5.3921  -22.0812 H   0  0  0  0  0  0  0  0  0  0  0  0
  -23.2304   -3.1991  -31.7315 H   0  0  0  0  0  0  0  0  0  0  0  0
  -22.9910   -4.9129  -32.1520 H   0  0  0  0  0  0  0  0  0  0  0  0
  -24.3442   -4.4481  -31.1224 H   0  0  0  0  0  0  0  0  0  0  0  0
  -18.8396   -6.4387  -29.2912 H   0  0  0  0  0  0  0  0  0  0  0  0
  -18.5274   -4.9846  -30.2708 H   0  0  0  0  0  0  0  0  0  0  0  0
  -18.2610   -4.9367  -28.5290 H   0  0  0  0  0  0  0  0  0  0  0  0
  -17.8167   -2.3240  -26.2968 H   0  0  0  0  0  0  0  0  0  0  0  0
  -18.9058   -2.9867  -25.0534 H   0  0  0  0  0  0  0  0  0  0  0  0
  -17.1711   -2.9189  -24.7473 H   0  0  0  0  0  0  0  0  0  0  0  0
  -24.5656   -4.4427  -24.9286 H   0  0  0  0  0  0  0  0  0  0  0  0
  -26.7449   -7.0585  -23.4395 H   0  0  0  0  0  0  0  0  0  0  0  0
  1  4  1  0  0  0  0
  1 12  2  0  0  0  0
  2  6  2  0  0  0  0
  2  8  1  0  0  0  0
  3  9  1  0  0  0  0
  3 11  2  0  0  0  0
  4 28  2  0  0  0  0
  5  7  1  0  0  0  0
  5  8  1  0  0  0  0
  5  9  2  0  0  0  0
  6 10  1  0  0  0  0
  6 25  1  0  0  0  0
  7 10  2  0  0  0  0
  7 26  1  0  0  0  0
  8 29  2  0  0  0  0
  9 30  1  0  0  0  0
 10 31  1  0  0  0  0
 11 13  1  0  0  0  0
 11 29  1  0  0  0  0
 12 27  1  0  0  0  0
 12 30  1  0  0  0  0
 13 32  1  0  0  0  0
 13 33  2  0  0  0  0
 14 18  1  0  0  0  0
 14 24  1  0  0  0  0
 15 19  1  0  0  0  0
 15 24  1  0  0  0  0
 16 22  1  0  0  0  0
 16 23  1  0  0  0  0
 17 22  1  0  0  0  0
 17 23  1  0  0  0  0
 18 31  1  0  0  0  0
 19 31  1  0  0  0  0
 20 24  1  0  0  0  0
 20 34  1  0  0  0  0
 21 24  1  0  0  0  0
 21 34  1  0  0  0  0
 22 32  1  0  0  0  0
 23 35  1  0  0  0  0
 28 30  1  0  0  0  0
  1 36  1  0  0  0  0
  2 37  1  0  0  0  0
  3 38  1  0  0  0  0
  4 39  1  0  0  0  0
 14 40  1  0  0  0  0
 14 41  1  0  0  0  0
 15 42  1  0  0  0  0
 15 43  1  0  0  0  0
 16 44  1  0  0  0  0
 16 45  1  0  0  0  0
 17 46  1  0  0  0  0
 17 47  1  0  0  0  0
 18 48  1  0  0  0  0
 18 49  1  0  0  0  0
 19 50  1  0  0  0  0
 19 51  1  0  0  0  0
 20 52  1  0  0  0  0
 20 53  1  0  0  0  0
 21 54  1  0  0  0  0
 21 55  1  0  0  0  0
 22 56  1  0  0  0  0
 23 57  1  0  0  0  0
 25 58  1  0  0  0  0
 25 59  1  0  0  0  0
 25 60  1  0  0  0  0
 26 61  1  0  0  0  0
 26 62  1  0  0  0  0
 26 63  1  0  0  0  0
 27 64  1  0  0  0  0
 27 65  1  0  0  0  0
 27 66  1  0  0  0  0
 32 67  1  0  0  0  0
 35 68  1  0  0  0  0
M  END
> <SMILES>
Cc1cc2nc(cc(c2c(c1N1CCC2(CC1)COC2)C)-n1nccc1C)C(=O)N[C@H]1C[C@@H](O)C1

> <FORMATTED_ID>
H3D-006697

> <MOLFORMULA>
C27H33N5O3

> <Exact Mass>
475.26

> <XLogP>
2.19

> <TPSA_NOPS>
92.5

> <s_m_source_file>
ligprep_h3d.sdf

> <i_m_source_file_index>
1088

> <i_lp_mmshare_version>
55123

> <i_f3d_flags>
0

> <s_epik_input>
W0NIMl0xT1tDSDJdQzEyW0NIMl1bQ0gyXU4oW0NIMl1bQ0gyXTIpYyhjKFtDSDNdKVtjSF0zKWMoW0NIM10pYyhjMzQpYygtbjVuW2NIXVtjSF1jNVtDSDNdKVtjSF1jKG40KUMoPU8pW05IXVtDQEhdNltDSDJdW0NAQEhdKFtPSF0pW0NIMl02

> <s_epik_cmdline>
J2VwaWtfcHl0aG9uJywgJy1waHQnLCAnMC41JywgJy1waCcsICc3LjUnLCAnLXRuJywgJzgnLCAnLW1hJywgJzUwMCcsICctaW1hZScsICc8aW5maWxlLm1hZT4nLCAnLW9tYWUnLCAnPG91dGZpbGUubWFlPic=

> <r_lp_tautomer_probability>
1

> <r_epik_Ionization_Penalty>
0.000336395

> <r_epik_Ionization_Penalty_Charging>
0

> <r_epik_Ionization_Penalty_Neutral>
0.000336395

> <r_epik_State_Penalty>
-0

> <r_epik_Charging_Adjusted_Penalty>
0

> <i_epik_Tot_Q>
0

> <i_epik_Tot_abs_Q>
0

> <s_lp_Force_Field>
S-OPLS

> <r_lp_Energy>
65.2991

> <b_lp_Chiralities_Consistent>
1

> <s_lp_Variant>
ligprep_h3d.sdf:1088-1

> <ROCS_ShapeQuery>
_7L13

> <ROCS_TanimotoCombo>
0.740 

> <ROCS_ShapeTanimoto>
0.636 

> <ROCS_ColorTanimoto>
0.104 

> <ROCS_RefTversky>
0.771 

> <ROCS_RefColorTversky>
0.225 

> <ROCS_RefTverskyCombo>
0.997 

> <ROCS_FitTversky>
0.784 

> <ROCS_FitColorTversky>
0.162 

> <ROCS_FitTverskyCombo>
0.946 

> <ROCS_ColorScore>
-2.074

> <ROCS_Overlap>
1279.985

> <ROCS_Rank>
496                 

$$$$
ligprep_h3d.sdf:595_1475
  -OEChem-08212117123D

 70 74  0     0  0  0  0  0  0999 V2000
  -21.1215   -4.0027  -32.2589 C   0  0  0  0  0  0  0  0  0  0  0  0
  -20.3907   -6.1870  -31.5295 C   0  0  0  0  0  0  0  0  0  0  0  0
  -20.6264   -4.2637  -33.5366 C   0  0  0  0  0  0  0  0  0  0  0  0
  -19.8956   -6.4480  -32.8071 C   0  0  0  0  0  0  0  0  0  0  0  0
  -17.0455   -5.6809  -26.3871 C   0  0  0  0  0  0  0  0  0  0  0  0
  -23.3747   -4.1579  -28.4858 C   0  0  0  0  0  0  0  0  0  0  0  0
  -20.8907   -4.1748  -25.1542 C   0  0  0  0  0  0  0  0  0  0  0  0
  -16.9391   -4.2886  -26.5655 C   0  0  0  0  0  0  0  0  0  0  0  0
  -21.1834   -4.4376  -27.5396 C   0  0  0  0  0  0  0  0  0  0  0  0
  -21.0036   -4.9643  -31.2554 C   0  0  0  0  0  0  0  0  0  0  0  0
  -21.5170   -4.6935  -29.9301 C   0  0  0  0  0  0  0  0  0  0  0  0
  -20.0135   -5.4863  -33.8107 C   0  0  0  0  0  0  0  0  0  0  0  0
  -22.8689   -4.4210  -29.7613 C   0  0  0  0  0  0  0  0  0  0  0  0
  -20.6743   -4.7021  -28.8224 C   0  0  0  0  0  0  0  0  0  0  0  0
  -22.5549   -4.1603  -27.3607 C   0  0  0  0  0  0  0  0  0  0  0  0
  -20.3576   -4.4398  -26.4073 C   0  0  0  0  0  0  0  0  0  0  0  0
  -22.2440   -3.9146  -25.0785 C   0  0  0  0  0  0  0  0  0  0  0  0
  -18.3964   -5.9140  -26.3029 C   0  0  0  0  0  0  0  0  0  0  0  0
  -22.8662   -3.6310  -23.7967 C   0  0  0  0  0  0  0  0  0  0  0  0
  -19.2849   -7.4752  -36.8785 C   0  0  0  0  0  0  0  0  0  0  0  0
  -21.4533   -6.6093  -36.2896 C   0  0  0  0  0  0  0  0  0  0  0  0
  -19.9698   -8.6891  -37.4999 C   0  0  0  0  0  0  0  0  0  0  0  0
  -22.0871   -7.8442  -36.9239 C   0  0  0  0  0  0  0  0  0  0  0  0
  -23.8179   -4.3977  -30.9172 C   0  0  0  0  0  0  0  0  0  0  0  0
  -19.2250   -5.0047  -29.0824 C   0  0  0  0  0  0  0  0  0  0  0  0
  -19.1433   -7.1734  -26.1151 C   0  0  0  0  0  0  0  0  0  0  0  0
  -19.4804   -5.7672  -35.1858 C   0  0  0  0  0  0  0  0  0  0  0  0
  -25.0002   -3.0565  -22.6106 C   0  0  0  0  0  0  0  0  0  0  0  0
  -25.5241   -4.3343  -21.9811 C   0  0  0  0  0  0  0  0  0  0  0  0
  -18.1277   -3.6799  -26.5933 N   0  0  0  0  0  0  0  0  0  0  0  0
  -23.0751   -3.9027  -26.1458 N   0  0  0  0  0  0  0  0  0  0  0  0
  -18.9938   -4.6947  -26.4313 N   0  0  0  0  0  0  0  0  0  0  0  0
  -20.1120   -6.9393  -35.7884 N   0  0  0  0  0  0  0  0  0  0  0  0
  -24.2433   -3.3767  -23.7995 N   0  0  0  0  0  0  0  0  0  0  0  0
  -22.1847   -3.5992  -22.7557 O   0  0  0  0  0  0  0  0  0  0  0  0
  -21.2660   -8.3354  -37.9840 O   0  0  0  0  0  0  0  0  0  0  0  0
  -26.3920   -4.9904  -22.8965 O   0  0  0  0  0  0  0  0  0  0  0  0
  -21.5962   -3.0446  -32.0607 H   0  0  0  0  0  0  0  0  0  0  0  0
  -20.2918   -6.9469  -30.7580 H   0  0  0  0  0  0  0  0  0  0  0  0
  -20.7216   -3.5083  -34.3120 H   0  0  0  0  0  0  0  0  0  0  0  0
  -19.4200   -7.4035  -33.0121 H   0  0  0  0  0  0  0  0  0  0  0  0
  -16.2521   -6.4116  -26.3285 H   0  0  0  0  0  0  0  0  0  0  0  0
  -24.4369   -3.9460  -28.3682 H   0  0  0  0  0  0  0  0  0  0  0  0
  -20.2730   -4.1703  -24.2604 H   0  0  0  0  0  0  0  0  0  0  0  0
  -16.0449   -3.6922  -26.6766 H   0  0  0  0  0  0  0  0  0  0  0  0
  -18.3026   -7.7767  -36.4973 H   0  0  0  0  0  0  0  0  0  0  0  0
  -19.1304   -6.7094  -37.6499 H   0  0  0  0  0  0  0  0  0  0  0  0
  -21.3938   -5.8058  -37.0353 H   0  0  0  0  0  0  0  0  0  0  0  0
  -22.0921   -6.2646  -35.4684 H   0  0  0  0  0  0  0  0  0  0  0  0
  -19.3838   -9.0517  -38.3506 H   0  0  0  0  0  0  0  0  0  0  0  0
  -20.0592   -9.5138  -36.7826 H   0  0  0  0  0  0  0  0  0  0  0  0
  -22.2489   -8.6407  -36.1872 H   0  0  0  0  0  0  0  0  0  0  0  0
  -23.0614   -7.5858  -37.3506 H   0  0  0  0  0  0  0  0  0  0  0  0
  -23.8711   -3.3894  -31.3418 H   0  0  0  0  0  0  0  0  0  0  0  0
  -23.4998   -5.0934  -31.7023 H   0  0  0  0  0  0  0  0  0  0  0  0
  -24.8243   -4.7020  -30.6069 H   0  0  0  0  0  0  0  0  0  0  0  0
  -19.0535   -6.0817  -29.0132 H   0  0  0  0  0  0  0  0  0  0  0  0
  -18.9302   -4.6589  -30.0770 H   0  0  0  0  0  0  0  0  0  0  0  0
  -18.5870   -4.4936  -28.3559 H   0  0  0  0  0  0  0  0  0  0  0  0
  -19.3026   -7.3850  -25.0451 H   0  0  0  0  0  0  0  0  0  0  0  0
  -20.1330   -7.1440  -26.6020 H   0  0  0  0  0  0  0  0  0  0  0  0
  -18.6141   -8.0373  -26.5526 H   0  0  0  0  0  0  0  0  0  0  0  0
  -19.6533   -4.9126  -35.8490 H   0  0  0  0  0  0  0  0  0  0  0  0
  -18.4002   -5.9453  -35.1597 H   0  0  0  0  0  0  0  0  0  0  0  0
  -25.8200   -2.3893  -22.8953 H   0  0  0  0  0  0  0  0  0  0  0  0
  -24.3375   -2.5330  -21.9149 H   0  0  0  0  0  0  0  0  0  0  0  0
  -26.0987   -4.0997  -21.0797 H   0  0  0  0  0  0  0  0  0  0  0  0
  -24.7094   -5.0166  -21.7176 H   0  0  0  0  0  0  0  0  0  0  0  0
  -24.7407   -3.3527  -24.6837 H   0  0  0  0  0  0  0  0  0  0  0  0
  -26.7030   -5.7981  -22.4570 H   0  0  0  0  0  0  0  0  0  0  0  0
  1  3  1  0  0  0  0
  1 10  2  0  0  0  0
  2  4  2  0  0  0  0
  2 10  1  0  0  0  0
  3 12  2  0  0  0  0
  4 12  1  0  0  0  0
  5  8  1  0  0  0  0
  5 18  2  0  0  0  0
  6 13  2  0  0  0  0
  6 15  1  0  0  0  0
  7 16  1  0  0  0  0
  7 17  2  0  0  0  0
  8 30  2  0  0  0  0
  9 14  1  0  0  0  0
  9 15  1  0  0  0  0
  9 16  2  0  0  0  0
 10 11  1  0  0  0  0
 11 13  1  0  0  0  0
 11 14  2  0  0  0  0
 12 27  1  0  0  0  0
 13 24  1  0  0  0  0
 14 25  1  0  0  0  0
 15 31  2  0  0  0  0
 16 32  1  0  0  0  0
 17 19  1  0  0  0  0
 17 31  1  0  0  0  0
 18 26  1  0  0  0  0
 18 32  1  0  0  0  0
 19 34  1  0  0  0  0
 19 35  2  0  0  0  0
 20 22  1  0  0  0  0
 20 33  1  0  0  0  0
 21 23  1  0  0  0  0
 21 33  1  0  0  0  0
 22 36  1  0  0  0  0
 23 36  1  0  0  0  0
 27 33  1  0  0  0  0
 28 29  1  0  0  0  0
 28 34  1  0  0  0  0
 29 37  1  0  0  0  0
 30 32  1  0  0  0  0
  1 38  1  0  0  0  0
  2 39  1  0  0  0  0
  3 40  1  0  0  0  0
  4 41  1  0  0  0  0
  5 42  1  0  0  0  0
  6 43  1  0  0  0  0
  7 44  1  0  0  0  0
  8 45  1  0  0  0  0
 20 46  1  0  0  0  0
 20 47  1  0  0  0  0
 21 48  1  0  0  0  0
 21 49  1  0  0  0  0
 22 50  1  0  0  0  0
 22 51  1  0  0  0  0
 23 52  1  0  0  0  0
 23 53  1  0  0  0  0
 24 54  1  0  0  0  0
 24 55  1  0  0  0  0
 24 56  1  0  0  0  0
 25 57  1  0  0  0  0
 25 58  1  0  0  0  0
 25 59  1  0  0  0  0
 26 60  1  0  0  0  0
 26 61  1  0  0  0  0
 26 62  1  0  0  0  0
 27 63  1  0  0  0  0
 27 64  1  0  0  0  0
 28 65  1  0  0  0  0
 28 66  1  0  0  0  0
 29 67  1  0  0  0  0
 29 68  1  0  0  0  0
 34 69  1  0  0  0  0
 37 70  1  0  0  0  0
M  END
> <SMILES>
Cc1cc2nc(cc(c2c(c1-c1ccc(cc1)CN1CCOCC1)C)-n1nccc1C)C(=O)NCCO

> <FORMATTED_ID>
H3D-004378

> <MOLFORMULA>
C29H33N5O3

> <Exact Mass>
499.26

> <XLogP>
3.03

> <TPSA_NOPS>
92.5

> <s_m_source_file>
ligprep_h3d.sdf

> <i_m_source_file_index>
595

> <i_lp_mmshare_version>
55123

> <i_f3d_flags>
0

> <s_epik_input>
W09IXVtDSDJdW0NIMl1bTkhdQyg9TyljKG4xKVtjSF1jKC1uMm5bY0hdW2NIXWMyW0NIM10pYyhjMTMpYyhbQ0gzXSljKGMoW0NIM10pW2NIXTMpLWM0W2NIXVtjSF1jKFtjSF1bY0hdNClbQ0gyXU41W0NIMl1bQ0gyXU9bQ0gyXVtDSDJdNQ==

> <s_epik_cmdline>
J2VwaWtfcHl0aG9uJywgJy1waHQnLCAnMC41JywgJy1waCcsICc3LjUnLCAnLXRuJywgJzgnLCAnLW1hJywgJzUwMCcsICctaW1hZScsICc8aW5maWxlLm1hZT4nLCAnLW9tYWUnLCAnPG91dGZpbGUubWFlPic=

> <r_lp_tautomer_probability>
1

> <r_epik_Ionization_Penalty>
0.10556

> <r_epik_Ionization_Penalty_Charging>
0

> <r_epik_Ionization_Penalty_Neutral>
0.10556

> <r_epik_State_Penalty>
0.095414

> <r_epik_Charging_Adjusted_Penalty>
0.095414

> <i_epik_Tot_Q>
0

> <i_epik_Tot_abs_Q>
0

> <s_lp_Force_Field>
S-OPLS

> <r_lp_Energy>
63.6086

> <b_lp_Chiralities_Consistent>
1

> <s_lp_Variant>
ligprep_h3d.sdf:595-1

> <ROCS_ShapeQuery>
_7L13

> <ROCS_TanimotoCombo>
0.727 

> <ROCS_ShapeTanimoto>
0.614 

> <ROCS_ColorTanimoto>
0.113 

> <ROCS_RefTversky>
0.771 

> <ROCS_RefColorTversky>
0.242 

> <ROCS_RefTverskyCombo>
1.014 

> <ROCS_FitTversky>
0.750 

> <ROCS_FitColorTversky>
0.174 

> <ROCS_FitTverskyCombo>
0.924 

> <ROCS_ColorScore>
-2.228

> <ROCS_Overlap>
1282.901

> <ROCS_Rank>
497                 

$$$$
ligprep_h3d.sdf:5181_1434
  -OEChem-08212117123D

 64 68  0     1  0  0  0  0  0999 V2000
  -16.0411   -4.5328  -24.0615 C   0  0  0  0  0  0  0  0  0  0  0  0
  -25.0935   -4.3804  -22.6763 C   0  0  0  0  0  0  0  0  0  0  0  0
  -16.2888   -5.7308  -24.7317 C   0  0  0  0  0  0  0  0  0  0  0  0
  -16.7476   -3.3810  -24.4076 C   0  0  0  0  0  0  0  0  0  0  0  0
  -23.7241   -4.2557  -22.9103 C   0  0  0  0  0  0  0  0  0  0  0  0
  -25.9577   -4.6713  -23.7319 C   0  0  0  0  0  0  0  0  0  0  0  0
  -20.7258   -3.2232  -34.6418 C   0  0  0  0  0  0  0  0  0  0  0  0
  -21.4779   -3.2632  -33.4678 C   0  0  0  0  0  0  0  0  0  0  0  0
  -17.2429   -5.7769  -25.7481 C   0  0  0  0  0  0  0  0  0  0  0  0
  -17.7017   -3.4271  -25.4240 C   0  0  0  0  0  0  0  0  0  0  0  0
  -23.2189   -4.4217  -24.1998 C   0  0  0  0  0  0  0  0  0  0  0  0
  -25.4526   -4.8373  -25.0214 C   0  0  0  0  0  0  0  0  0  0  0  0
  -20.1591   -4.3932  -35.1474 C   0  0  0  0  0  0  0  0  0  0  0  0
  -21.0965   -5.6434  -33.3047 C   0  0  0  0  0  0  0  0  0  0  0  0
  -21.6632   -4.4733  -32.7992 C   0  0  0  0  0  0  0  0  0  0  0  0
  -17.9494   -4.6250  -26.0943 C   0  0  0  0  0  0  0  0  0  0  0  0
  -24.0832   -4.7126  -25.2554 C   0  0  0  0  0  0  0  0  0  0  0  0
  -20.3445   -5.6033  -34.4788 C   0  0  0  0  0  0  0  0  0  0  0  0
  -19.3539   -5.7377  -27.9482 C   0  0  0  0  0  0  0  0  0  0  0  0
  -19.5441   -3.6396  -27.8641 C   0  0  0  0  0  0  0  0  0  0  0  0
  -22.5618   -3.9477  -29.0733 C   0  0  0  0  0  0  0  0  0  0  0  0
  -20.4286   -4.6592  -30.0648 C   0  0  0  0  0  0  0  0  0  0  0  0
  -21.8563   -4.9432  -28.1593 C   0  0  1  0  0  0  0  0  0  0  0  0
  -20.3860   -4.7540  -28.5431 C   0  0  0  0  0  0  0  0  0  0  0  0
  -18.0294   -7.1451  -34.3473 C   0  0  0  0  0  0  0  0  0  0  0  0
  -22.4723   -4.5155  -31.5365 C   0  0  0  0  0  0  0  0  0  0  0  0
  -22.1886   -4.7328  -26.6928 C   0  0  0  0  0  0  0  0  0  0  0  0
  -18.9084   -4.6710  -27.1156 N   0  0  0  0  0  0  0  0  0  0  0  0
  -21.7445   -3.9555  -30.3546 N   0  3  1  0  0  0  0  0  0  0  0  0
  -20.4169   -8.1934  -34.6231 O   0  0  0  0  0  0  0  0  0  0  0  0
  -19.4147   -6.9055  -36.5422 O   0  0  0  0  0  0  0  0  0  0  0  0
  -23.5865   -4.8745  -26.5256 O   0  0  0  0  0  0  0  0  0  0  0  0
  -19.6338   -7.0671  -35.1112 S   0  0  0  0  0  0  0  0  0  0  0  0
  -15.2979   -4.4970  -23.2701 H   0  0  0  0  0  0  0  0  0  0  0  0
  -25.4871   -4.2518  -21.6723 H   0  0  0  0  0  0  0  0  0  0  0  0
  -15.7386   -6.6273  -24.4622 H   0  0  0  0  0  0  0  0  0  0  0  0
  -16.5546   -2.4482  -23.8855 H   0  0  0  0  0  0  0  0  0  0  0  0
  -23.0509   -4.0290  -22.0885 H   0  0  0  0  0  0  0  0  0  0  0  0
  -27.0240   -4.7684  -23.5488 H   0  0  0  0  0  0  0  0  0  0  0  0
  -20.5821   -2.2811  -35.1629 H   0  0  0  0  0  0  0  0  0  0  0  0
  -21.9166   -2.3467  -33.0819 H   0  0  0  0  0  0  0  0  0  0  0  0
  -17.4283   -6.7152  -26.2643 H   0  0  0  0  0  0  0  0  0  0  0  0
  -18.2463   -2.5232  -25.6850 H   0  0  0  0  0  0  0  0  0  0  0  0
  -22.1513   -4.3218  -24.3757 H   0  0  0  0  0  0  0  0  0  0  0  0
  -26.1308   -5.0620  -25.8401 H   0  0  0  0  0  0  0  0  0  0  0  0
  -19.5747   -4.3501  -36.0625 H   0  0  0  0  0  0  0  0  0  0  0  0
  -21.2420   -6.5861  -32.7826 H   0  0  0  0  0  0  0  0  0  0  0  0
  -19.7656   -6.5717  -27.3643 H   0  0  0  0  0  0  0  0  0  0  0  0
  -18.5729   -6.1144  -28.6181 H   0  0  0  0  0  0  0  0  0  0  0  0
  -18.8564   -3.0893  -28.5088 H   0  0  0  0  0  0  0  0  0  0  0  0
  -20.1041   -2.9500  -27.2261 H   0  0  0  0  0  0  0  0  0  0  0  0
  -23.5725   -4.2907  -29.3309 H   0  0  0  0  0  0  0  0  0  0  0  0
  -22.5968   -2.9207  -28.6919 H   0  0  0  0  0  0  0  0  0  0  0  0
  -19.6442   -4.0143  -30.4679 H   0  0  0  0  0  0  0  0  0  0  0  0
  -20.4209   -5.6276  -30.5699 H   0  0  0  0  0  0  0  0  0  0  0  0
  -22.2069   -5.9827  -28.4360 H   0  0  0  0  0  0  0  0  0  0  0  0
  -17.5232   -8.0448  -34.7007 H   0  0  0  0  0  0  0  0  0  0  0  0
  -17.4686   -6.2537  -34.6324 H   0  0  0  0  0  0  0  0  0  0  0  0
  -18.1648   -7.1824  -33.2654 H   0  0  0  0  0  0  0  0  0  0  0  0
  -23.3970   -3.9375  -31.6392 H   0  0  0  0  0  0  0  0  0  0  0  0
  -22.7484   -5.5434  -31.2778 H   0  0  0  0  0  0  0  0  0  0  0  0
  -21.8866   -3.7325  -26.3858 H   0  0  0  0  0  0  0  0  0  0  0  0
  -21.6739   -5.4772  -26.0871 H   0  0  0  0  0  0  0  0  0  0  0  0
  -21.5214   -2.9788  -30.5764 H   0  0  0  0  0  0  0  0  0  0  0  0
  1  3  2  0  0  0  0
  1  4  1  0  0  0  0
  2  5  2  0  0  0  0
  2  6  1  0  0  0  0
  3  9  1  0  0  0  0
  4 10  2  0  0  0  0
  5 11  1  0  0  0  0
  6 12  2  0  0  0  0
  7  8  2  0  0  0  0
  7 13  1  0  0  0  0
  8 15  1  0  0  0  0
  9 16  2  0  0  0  0
 10 16  1  0  0  0  0
 11 17  2  0  0  0  0
 12 17  1  0  0  0  0
 13 18  2  0  0  0  0
 14 15  2  0  0  0  0
 14 18  1  0  0  0  0
 15 26  1  0  0  0  0
 16 28  1  0  0  0  0
 17 32  1  0  0  0  0
 18 33  1  0  0  0  0
 19 24  1  0  0  0  0
 19 28  1  0  0  0  0
 20 24  1  0  0  0  0
 20 28  1  0  0  0  0
 21 23  1  0  0  0  0
 21 29  1  0  0  0  0
 22 24  1  0  0  0  0
 22 29  1  0  0  0  0
 23 24  1  0  0  0  0
 23 27  1  0  0  0  0
 25 33  1  0  0  0  0
 26 29  1  0  0  0  0
 27 32  1  0  0  0  0
 30 33  2  0  0  0  0
 31 33  2  0  0  0  0
  1 34  1  0  0  0  0
  2 35  1  0  0  0  0
  3 36  1  0  0  0  0
  4 37  1  0  0  0  0
  5 38  1  0  0  0  0
  6 39  1  0  0  0  0
  7 40  1  0  0  0  0
  8 41  1  0  0  0  0
  9 42  1  0  0  0  0
 10 43  1  0  0  0  0
 11 44  1  0  0  0  0
 12 45  1  0  0  0  0
 13 46  1  0  0  0  0
 14 47  1  0  0  0  0
 19 48  1  0  0  0  0
 19 49  1  0  0  0  0
 20 50  1  0  0  0  0
 20 51  1  0  0  0  0
 21 52  1  0  0  0  0
 21 53  1  0  0  0  0
 22 54  1  0  0  0  0
 22 55  1  0  0  0  0
 23 56  1  0  0  0  0
 25 57  1  0  0  0  0
 25 58  1  0  0  0  0
 25 59  1  0  0  0  0
 26 60  1  0  0  0  0
 26 61  1  0  0  0  0
 27 62  1  0  0  0  0
 27 63  1  0  0  0  0
 29 64  1  0  0  0  0
M  CHG  1  29   1
M  END
> <SMILES>
CS(=O)(=O)c1cccc(c1)CN1CC(COc2ccccc2)C2(C1)CN(C2)c1ccccc1

> <FORMATTED_ID>
H3D-013998

> <MOLFORMULA>
C27H30N2O3S

> <Exact Mass>
462.2

> <XLogP>
3.79

> <TPSA_NOPS>
58.2

> <s_m_source_file>
ligprep_h3d.sdf

> <i_m_source_file_index>
5181

> <i_lp_mmshare_version>
55123

> <i_f3d_flags>
0

> <s_epik_input>
W0NIM11TKD1PKSg9TyljMVtjSF1bY0hdW2NIXWMoW2NIXTEpW0NIMl1OKFtDSDJdMilbQ0gyXVtDQEhdKFtDSDJdT2MzW2NIXVtjSF1bY0hdW2NIXVtjSF0zKUMyNFtDSDJdTihbQ0gyXTQpYzVbY0hdW2NIXVtjSF1bY0hdW2NIXTU=

> <s_epik_cmdline>
J2VwaWtfcHl0aG9uJywgJy1waHQnLCAnMC41JywgJy1waCcsICc3LjUnLCAnLXRuJywgJzgnLCAnLW1hJywgJzUwMCcsICctaW1hZScsICc8aW5maWxlLm1hZT4nLCAnLW9tYWUnLCAnPG91dGZpbGUubWFlPic=

> <r_lp_tautomer_probability>
1

> <r_epik_Ionization_Penalty>
0.0440781

> <r_epik_Ionization_Penalty_Charging>
0.0440655

> <r_epik_Ionization_Penalty_Neutral>
1.26287e-05

> <r_epik_State_Penalty>
0.0373235

> <r_epik_Charging_Adjusted_Penalty>
0.081389

> <i_epik_Tot_Q>
1

> <i_epik_Tot_abs_Q>
1

> <s_lp_Force_Field>
S-OPLS

> <r_lp_Energy>
30.5765

> <b_lp_Chiralities_Consistent>
1

> <s_lp_Variant>
ligprep_h3d.sdf:5181-1

> <ROCS_ShapeQuery>
_7L13

> <ROCS_TanimotoCombo>
0.741 

> <ROCS_ShapeTanimoto>
0.684 

> <ROCS_ColorTanimoto>
0.057 

> <ROCS_RefTversky>
0.771 

> <ROCS_RefColorTversky>
0.113 

> <ROCS_RefTverskyCombo>
0.884 

> <ROCS_FitTversky>
0.858 

> <ROCS_FitColorTversky>
0.103 

> <ROCS_FitTverskyCombo>
0.961 

> <ROCS_ColorScore>
-1.024

> <ROCS_Overlap>
1273.723

> <ROCS_Rank>
498                 

$$$$
ligprep_h3d.sdf:734_36
  -OEChem-08212117123D

 58 63  0     1  0  0  0  0  0999 V2000
  -20.9627   -5.1243  -29.5112 C   0  0  0  0  0  0  0  0  0  0  0  0
  -21.7428   -4.3696  -30.3896 C   0  0  0  0  0  0  0  0  0  0  0  0
  -21.0778   -4.8857  -28.1200 C   0  0  0  0  0  0  0  0  0  0  0  0
  -21.9829   -3.9402  -27.5831 C   0  0  0  0  0  0  0  0  0  0  0  0
  -22.5967   -3.4261  -29.8625 C   0  0  0  0  0  0  0  0  0  0  0  0
  -22.7464   -3.1768  -28.4980 C   0  0  0  0  0  0  0  0  0  0  0  0
  -21.9396   -4.2615  -31.7788 C   0  0  0  0  0  0  0  0  0  0  0  0
  -18.9189   -3.8126  -26.2028 C   0  0  0  0  0  0  0  0  0  0  0  0
  -19.2477   -6.0823  -25.0253 C   0  0  0  0  0  0  0  0  0  0  0  0
  -16.9925   -5.3070  -25.7261 C   0  0  0  0  0  0  0  0  0  0  0  0
  -20.2068   -5.7032  -27.2039 C   0  0  0  0  0  0  0  0  0  0  0  0
  -20.3748   -4.5275  -33.7205 C   0  0  0  0  0  0  0  0  0  0  0  0
  -21.3164   -6.5086  -32.7001 C   0  0  0  0  0  0  0  0  0  0  0  0
  -23.0539   -2.8035  -25.6482 C   0  0  0  0  0  0  0  0  0  0  0  0
  -21.2095   -4.4744  -25.2378 C   0  0  2  0  0  0  0  0  0  0  0  0
  -19.6442   -5.7633  -34.2410 C   0  0  1  0  0  0  0  0  0  0  0  0
  -20.6450   -6.8828  -34.0143 C   0  0  1  0  0  0  0  0  0  0  0  0
  -23.4237   -3.1195  -24.1962 C   0  0  1  0  0  0  0  0  0  0  0  0
  -21.0488   -3.5408  -24.0028 C   0  0  2  0  0  0  0  0  0  0  0  0
  -19.8781   -4.9700  -25.8795 C   0  0  0  0  0  0  0  0  0  0  0  0
  -24.4063   -4.2833  -24.0793 C   0  0  0  0  0  0  0  0  0  0  0  0
  -20.0928   -4.0213  -22.9174 C   0  0  0  0  0  0  0  0  0  0  0  0
  -22.8413   -3.3258  -32.0916 N   0  0  0  0  0  0  0  0  0  0  0  0
  -17.5746   -4.1494  -26.2224 N   0  0  0  0  0  0  0  0  0  0  0  0
  -17.8701   -6.1987  -25.1260 N   0  0  0  0  0  0  0  0  0  0  0  0
  -22.0944   -3.7680  -26.2013 N   0  0  3  0  0  0  0  0  0  0  0  0
  -21.2537   -5.0504  -32.6778 N   0  0  0  0  0  0  0  0  0  0  0  0
  -19.3018   -2.6783  -26.4894 O   0  0  0  0  0  0  0  0  0  0  0  0
  -19.9169   -6.8776  -24.3643 O   0  0  0  0  0  0  0  0  0  0  0  0
  -15.7783   -5.5098  -25.7779 O   0  0  0  0  0  0  0  0  0  0  0  0
  -23.2544   -2.7964  -30.8744 O   0  0  0  0  0  0  0  0  0  0  0  0
  -22.3114   -3.3778  -23.3449 O   0  0  0  0  0  0  0  0  0  0  0  0
  -19.3464   -5.6443  -35.6196 O   0  0  0  0  0  0  0  0  0  0  0  0
  -23.5309   -2.1562  -28.1321 F   0  0  0  0  0  0  0  0  0  0  0  0
  -19.9957   -8.0647  -33.8896 F   0  0  0  0  0  0  0  0  0  0  0  0
  -20.2734   -5.8746  -29.8882 H   0  0  0  0  0  0  0  0  0  0  0  0
  -20.7325   -6.6476  -27.0065 H   0  0  0  0  0  0  0  0  0  0  0  0
  -19.2746   -5.9653  -27.7230 H   0  0  0  0  0  0  0  0  0  0  0  0
  -19.6632   -3.7925  -33.3257 H   0  0  0  0  0  0  0  0  0  0  0  0
  -20.9643   -4.0408  -34.5077 H   0  0  0  0  0  0  0  0  0  0  0  0
  -22.3490   -6.8749  -32.6693 H   0  0  0  0  0  0  0  0  0  0  0  0
  -20.7741   -6.9296  -31.8448 H   0  0  0  0  0  0  0  0  0  0  0  0
  -23.9651   -2.8471  -26.2800 H   0  0  0  0  0  0  0  0  0  0  0  0
  -22.7448   -1.7477  -25.6877 H   0  0  0  0  0  0  0  0  0  0  0  0
  -21.7857   -5.3542  -24.9118 H   0  0  0  0  0  0  0  0  0  0  0  0
  -18.7157   -5.9464  -33.6886 H   0  0  0  0  0  0  0  0  0  0  0  0
  -21.3641   -6.9677  -34.8365 H   0  0  0  0  0  0  0  0  0  0  0  0
  -23.9727   -2.2136  -23.7611 H   0  0  0  0  0  0  0  0  0  0  0  0
  -20.7058   -2.5367  -24.3128 H   0  0  0  0  0  0  0  0  0  0  0  0
  -23.9558   -5.1933  -24.4760 H   0  0  0  0  0  0  0  0  0  0  0  0
  -25.3135   -4.0636  -24.6424 H   0  0  0  0  0  0  0  0  0  0  0  0
  -24.6696   -4.4457  -23.0340 H   0  0  0  0  0  0  0  0  0  0  0  0
  -20.3871   -5.0130  -22.5740 H   0  0  0  0  0  0  0  0  0  0  0  0
  -20.1130   -3.3337  -22.0720 H   0  0  0  0  0  0  0  0  0  0  0  0
  -19.0772   -4.0697  -23.3102 H   0  0  0  0  0  0  0  0  0  0  0  0
  -16.9461   -3.4743  -26.6469 H   0  0  0  0  0  0  0  0  0  0  0  0
  -17.4502   -7.0001  -24.6637 H   0  0  0  0  0  0  0  0  0  0  0  0
  -18.7806   -4.8601  -35.7233 H   0  0  0  0  0  0  0  0  0  0  0  0
  1  2  2  0  0  0  0
  1  3  1  0  0  0  0
  2  5  1  0  0  0  0
  2  7  1  0  0  0  0
  3  4  2  0  0  0  0
  3 11  1  0  0  0  0
  4  6  1  0  0  0  0
  4 26  1  0  0  0  0
  5  6  2  0  0  0  0
  5 31  1  0  0  0  0
  6 34  1  0  0  0  0
  7 23  2  0  0  0  0
  7 27  1  0  0  0  0
  8 20  1  0  0  0  0
  8 24  1  0  0  0  0
  8 28  2  0  0  0  0
  9 20  1  0  0  0  0
  9 25  1  0  0  0  0
  9 29  2  0  0  0  0
 10 24  1  0  0  0  0
 10 25  1  0  0  0  0
 10 30  2  0  0  0  0
 11 20  1  0  0  0  0
 12 16  1  0  0  0  0
 12 27  1  0  0  0  0
 13 17  1  0  0  0  0
 13 27  1  0  0  0  0
 14 18  1  0  0  0  0
 14 26  1  0  0  0  0
 15 19  1  0  0  0  0
 15 20  1  0  0  0  0
 15 26  1  0  0  0  0
 16 17  1  0  0  0  0
 16 33  1  0  0  0  0
 17 35  1  0  0  0  0
 18 21  1  0  0  0  0
 18 32  1  0  0  0  0
 19 22  1  0  0  0  0
 19 32  1  0  0  0  0
 23 31  1  0  0  0  0
  1 36  1  0  0  0  0
 11 37  1  0  0  0  0
 11 38  1  0  0  0  0
 12 39  1  0  0  0  0
 12 40  1  0  0  0  0
 13 41  1  0  0  0  0
 13 42  1  0  0  0  0
 14 43  1  0  0  0  0
 14 44  1  0  0  0  0
 15 45  1  0  0  0  0
 16 46  1  0  0  0  0
 17 47  1  0  0  0  0
 18 48  1  0  0  0  0
 19 49  1  0  0  0  0
 21 50  1  0  0  0  0
 21 51  1  0  0  0  0
 21 52  1  0  0  0  0
 22 53  1  0  0  0  0
 22 54  1  0  0  0  0
 22 55  1  0  0  0  0
 24 56  1  0  0  0  0
 25 57  1  0  0  0  0
 33 58  1  0  0  0  0
M  END
> <SMILES>
C[C@@H]1CN2[C@H]([C@H](C)O1)C1(Cc3cc4c(noc4c(c32)F)N2C[C@H](O)[C@@H](F)C2)C(=O)NC(=O)NC1=O

> <FORMATTED_ID>
H3D-004989

> <MOLFORMULA>
C22H23F2N5O6

> <Exact Mass>
491.16

> <XLogP>
-0.49

> <TPSA_NOPS>
137.5

> <s_m_source_file>
ligprep_h3d.sdf

> <i_m_source_file_index>
734

> <i_lp_mmshare_version>
55123

> <i_f3d_flags>
0

> <s_epik_input>
Tz1DMVtOSF1DKD1PKVtOSF1DKD1PKUMxMltDQEBIXTNOKFtDSDJdW0NAQEhdKFtDSDNdKU9bQ0BIXTNbQ0gzXSljNGMoW0NIMl0yKVtjSF1jNWMoYzRGKW9uYzVONltDSDJdW0NASF0oW09IXSlbQ0BASF0oRilbQ0gyXTY=

> <s_epik_cmdline>
J2VwaWtfcHl0aG9uJywgJy1waHQnLCAnMC41JywgJy1waCcsICc3LjUnLCAnLXRuJywgJzgnLCAnLW1hJywgJzUwMCcsICctaW1hZScsICc8aW5maWxlLm1hZT4nLCAnLW9tYWUnLCAnPG91dGZpbGUubWFlPic=

> <r_lp_tautomer_probability>
1

> <r_epik_Ionization_Penalty>
0.369135

> <r_epik_Ionization_Penalty_Charging>
0

> <r_epik_Ionization_Penalty_Neutral>
0.369135

> <r_epik_State_Penalty>
0.366447

> <r_epik_Charging_Adjusted_Penalty>
0.366447

> <i_epik_Tot_Q>
0

> <i_epik_Tot_abs_Q>
0

> <s_lp_Force_Field>
S-OPLS

> <r_lp_Energy>
45.8074

> <b_lp_Chiralities_Consistent>
1

> <s_lp_Variant>
ligprep_h3d.sdf:734-1

> <ROCS_ShapeQuery>
_7L13

> <ROCS_TanimotoCombo>
0.758 

> <ROCS_ShapeTanimoto>
0.628 

> <ROCS_ColorTanimoto>
0.130 

> <ROCS_RefTversky>
0.771 

> <ROCS_RefColorTversky>
0.298 

> <ROCS_RefTverskyCombo>
1.069 

> <ROCS_FitTversky>
0.772 

> <ROCS_FitColorTversky>
0.188 

> <ROCS_FitTverskyCombo>
0.960 

> <ROCS_ColorScore>
-2.769

> <ROCS_Overlap>
1280.788

> <ROCS_Rank>
499                 

$$$$
ligprep_h3d.sdf:1214_1462
  -OEChem-08212117123D

 69 74  0     0  0  0  0  0  0999 V2000
  -18.9084   -7.2366  -35.2678 C   0  0  0  0  0  0  0  0  0  0  0  0
  -18.6843   -5.8620  -35.1917 C   0  0  0  0  0  0  0  0  0  0  0  0
  -20.2099   -7.7353  -35.2120 C   0  0  0  0  0  0  0  0  0  0  0  0
  -25.8576   -4.9649  -24.6929 C   0  0  0  0  0  0  0  0  0  0  0  0
  -24.5768   -4.1754  -22.8026 C   0  0  0  0  0  0  0  0  0  0  0  0
  -24.7060   -4.9493  -25.4798 C   0  0  0  0  0  0  0  0  0  0  0  0
  -23.4251   -4.1598  -23.5895 C   0  0  0  0  0  0  0  0  0  0  0  0
  -28.0014   -5.5142  -22.8035 C   0  0  0  0  0  0  0  0  0  0  0  0
  -27.1249   -3.6888  -21.4857 C   0  0  0  0  0  0  0  0  0  0  0  0
  -19.7617   -4.9860  -35.0598 C   0  0  0  0  0  0  0  0  0  0  0  0
  -21.2873   -6.8593  -35.0801 C   0  0  0  0  0  0  0  0  0  0  0  0
  -29.1529   -5.5295  -22.0165 C   0  0  0  0  0  0  0  0  0  0  0  0
  -28.2765   -3.7040  -20.6987 C   0  0  0  0  0  0  0  0  0  0  0  0
  -22.4291   -2.6319  -31.9587 C   0  0  0  0  0  0  0  0  0  0  0  0
  -22.4772   -4.7893  -32.3808 C   0  0  0  0  0  0  0  0  0  0  0  0
  -25.7930   -4.5779  -23.3543 C   0  0  0  0  0  0  0  0  0  0  0  0
  -26.9874   -4.5939  -22.5381 C   0  0  0  0  0  0  0  0  0  0  0  0
  -23.4897   -4.5468  -24.9281 C   0  0  0  0  0  0  0  0  0  0  0  0
  -20.0800   -4.5159  -27.2570 C   0  0  0  0  0  0  0  0  0  0  0  0
  -21.0633   -5.4846  -35.0040 C   0  0  0  0  0  0  0  0  0  0  0  0
  -22.5408   -3.8926  -31.3424 C   0  0  0  0  0  0  0  0  0  0  0  0
  -29.2905   -4.6244  -20.9641 C   0  0  0  0  0  0  0  0  0  0  0  0
  -20.0310   -4.7306  -25.8828 C   0  0  0  0  0  0  0  0  0  0  0  0
  -21.3411   -4.2910  -27.7839 C   0  0  0  0  0  0  0  0  0  0  0  0
  -22.3012   -4.5307  -25.7401 C   0  0  0  0  0  0  0  0  0  0  0  0
  -18.8439   -4.4574  -28.1052 C   0  0  0  0  0  0  0  0  0  0  0  0
  -18.7190   -5.0040  -25.2072 C   0  0  0  0  0  0  0  0  0  0  0  0
  -17.6393   -5.1223  -27.4475 C   0  0  0  0  0  0  0  0  0  0  0  0
  -31.4115   -5.6058  -20.5239 C   0  0  0  0  0  0  0  0  0  0  0  0
  -22.2261   -4.5401  -34.8614 C   0  0  0  0  0  0  0  0  0  0  0  0
  -22.6925   -4.1924  -29.8790 C   0  0  0  0  0  0  0  0  0  0  0  0
  -22.3038   -2.7160  -33.2859 N   0  0  0  0  0  0  0  0  0  0  0  0
  -21.1359   -4.7524  -25.1030 N   0  0  0  0  0  0  0  0  0  0  0  0
  -22.4743   -4.2958  -27.0531 N   0  0  0  0  0  0  0  0  0  0  0  0
  -22.3364   -4.0404  -33.5119 N   0  0  0  0  0  0  0  0  0  0  0  0
  -21.4652   -4.0272  -29.1702 N   0  0  0  0  0  0  0  0  0  0  0  0
  -17.5285   -4.6354  -26.0395 N   0  3  0  0  0  0  0  0  0  0  0  0
  -30.4143   -4.6391  -20.1968 O   0  0  0  0  0  0  0  0  0  0  0  0
  -18.0694   -7.9185  -35.3719 H   0  0  0  0  0  0  0  0  0  0  0  0
  -17.6710   -5.4735  -35.2362 H   0  0  0  0  0  0  0  0  0  0  0  0
  -20.3848   -8.8054  -35.2723 H   0  0  0  0  0  0  0  0  0  0  0  0
  -26.7982   -5.2811  -25.1375 H   0  0  0  0  0  0  0  0  0  0  0  0
  -24.5101   -3.8709  -21.7608 H   0  0  0  0  0  0  0  0  0  0  0  0
  -24.7722   -5.2535  -26.5217 H   0  0  0  0  0  0  0  0  0  0  0  0
  -22.4843   -3.8436  -23.1451 H   0  0  0  0  0  0  0  0  0  0  0  0
  -27.9089   -6.2260  -23.6203 H   0  0  0  0  0  0  0  0  0  0  0  0
  -26.3435   -2.9652  -21.2662 H   0  0  0  0  0  0  0  0  0  0  0  0
  -19.5776   -3.9165  -35.0010 H   0  0  0  0  0  0  0  0  0  0  0  0
  -22.2979   -7.2568  -35.0373 H   0  0  0  0  0  0  0  0  0  0  0  0
  -29.9395   -6.2486  -22.2282 H   0  0  0  0  0  0  0  0  0  0  0  0
  -28.3782   -2.9965  -19.8804 H   0  0  0  0  0  0  0  0  0  0  0  0
  -22.4325   -1.6540  -31.4983 H   0  0  0  0  0  0  0  0  0  0  0  0
  -22.5178   -5.8697  -32.4103 H   0  0  0  0  0  0  0  0  0  0  0  0
  -19.0138   -4.9542  -29.0675 H   0  0  0  0  0  0  0  0  0  0  0  0
  -18.6118   -3.4046  -28.3095 H   0  0  0  0  0  0  0  0  0  0  0  0
  -18.6309   -4.4350  -24.2766 H   0  0  0  0  0  0  0  0  0  0  0  0
  -18.6289   -6.0735  -24.9885 H   0  0  0  0  0  0  0  0  0  0  0  0
  -17.7375   -6.2127  -27.4052 H   0  0  0  0  0  0  0  0  0  0  0  0
  -16.7067   -4.8628  -27.9574 H   0  0  0  0  0  0  0  0  0  0  0  0
  -32.2539   -5.5089  -19.8346 H   0  0  0  0  0  0  0  0  0  0  0  0
  -30.9840   -6.6093  -20.4548 H   0  0  0  0  0  0  0  0  0  0  0  0
  -31.7570   -5.4286  -21.5451 H   0  0  0  0  0  0  0  0  0  0  0  0
  -22.1249   -3.6826  -35.5376 H   0  0  0  0  0  0  0  0  0  0  0  0
  -23.1707   -5.0324  -35.1227 H   0  0  0  0  0  0  0  0  0  0  0  0
  -23.4366   -3.5294  -29.4242 H   0  0  0  0  0  0  0  0  0  0  0  0
  -23.0340   -5.2209  -29.7220 H   0  0  0  0  0  0  0  0  0  0  0  0
  -20.6412   -3.7154  -29.6427 H   0  0  0  0  0  0  0  0  0  0  0  0
  -17.4096   -3.6124  -26.0396 H   0  0  0  0  0  0  0  0  0  0  0  0
  -16.6764   -5.0161  -25.6054 H   0  0  0  0  0  0  0  0  0  0  0  0
  1  2  2  0  0  0  0
  1  3  1  0  0  0  0
  2 10  1  0  0  0  0
  3 11  2  0  0  0  0
  4  6  1  0  0  0  0
  4 16  2  0  0  0  0
  5  7  2  0  0  0  0
  5 16  1  0  0  0  0
  6 18  2  0  0  0  0
  7 18  1  0  0  0  0
  8 12  1  0  0  0  0
  8 17  2  0  0  0  0
  9 13  2  0  0  0  0
  9 17  1  0  0  0  0
 10 20  2  0  0  0  0
 11 20  1  0  0  0  0
 12 22  2  0  0  0  0
 13 22  1  0  0  0  0
 14 21  1  0  0  0  0
 14 32  2  0  0  0  0
 15 21  2  0  0  0  0
 15 35  1  0  0  0  0
 16 17  1  0  0  0  0
 18 25  1  0  0  0  0
 19 23  2  0  0  0  0
 19 24  1  0  0  0  0
 19 26  1  0  0  0  0
 20 30  1  0  0  0  0
 21 31  1  0  0  0  0
 22 38  1  0  0  0  0
 23 27  1  0  0  0  0
 23 33  1  0  0  0  0
 24 34  2  0  0  0  0
 24 36  1  0  0  0  0
 25 33  2  0  0  0  0
 25 34  1  0  0  0  0
 26 28  1  0  0  0  0
 27 37  1  0  0  0  0
 28 37  1  0  0  0  0
 29 38  1  0  0  0  0
 30 35  1  0  0  0  0
 31 36  1  0  0  0  0
 32 35  1  0  0  0  0
  1 39  1  0  0  0  0
  2 40  1  0  0  0  0
  3 41  1  0  0  0  0
  4 42  1  0  0  0  0
  5 43  1  0  0  0  0
  6 44  1  0  0  0  0
  7 45  1  0  0  0  0
  8 46  1  0  0  0  0
  9 47  1  0  0  0  0
 10 48  1  0  0  0  0
 11 49  1  0  0  0  0
 12 50  1  0  0  0  0
 13 51  1  0  0  0  0
 14 52  1  0  0  0  0
 15 53  1  0  0  0  0
 26 54  1  0  0  0  0
 26 55  1  0  0  0  0
 27 56  1  0  0  0  0
 27 57  1  0  0  0  0
 28 58  1  0  0  0  0
 28 59  1  0  0  0  0
 29 60  1  0  0  0  0
 29 61  1  0  0  0  0
 29 62  1  0  0  0  0
 30 63  1  0  0  0  0
 30 64  1  0  0  0  0
 31 65  1  0  0  0  0
 31 66  1  0  0  0  0
 36 67  1  0  0  0  0
 37 68  1  0  0  0  0
 37 69  1  0  0  0  0
M  CHG  1  37   1
M  END
> <SMILES>
COc1ccc(cc1)-c1ccc(cc1)-c1nc2c(c(n1)NCc1cnn(c1)Cc1ccccc1)CCNC2

> <FORMATTED_ID>
H3D-008341

> <MOLFORMULA>
C31H30N6O

> <Exact Mass>
502.25

> <XLogP>
5.7

> <TPSA_NOPS>
76.9

> <s_m_source_file>
ligprep_h3d.sdf

> <i_m_source_file_index>
1214

> <i_lp_mmshare_version>
55123

> <i_f3d_flags>
0

> <s_epik_input>
W0NIM11PYzFbY0hdW2NIXWMoW2NIXVtjSF0xKS1jMltjSF1bY0hdYyhbY0hdW2NIXTIpLWMobjMpbmMoYyhjMzQpW0NIMl1bQ0gyXVtOSF1bQ0gyXTQpW05IXVtDSDJdYzVbY0hdbm4oW2NIXTUpW0NIMl1jNltjSF1bY0hdW2NIXVtjSF1bY0hdNg==

> <s_epik_cmdline>
J2VwaWtfcHl0aG9uJywgJy1waHQnLCAnMC41JywgJy1waCcsICc3LjUnLCAnLXRuJywgJzgnLCAnLW1hJywgJzUwMCcsICctaW1hZScsICc8aW5maWxlLm1hZT4nLCAnLW9tYWUnLCAnPG91dGZpbGUubWFlPic=

> <r_lp_tautomer_probability>
1

> <r_epik_Ionization_Penalty>
0.165395

> <r_epik_Ionization_Penalty_Charging>
0.165339

> <r_epik_Ionization_Penalty_Neutral>
5.62486e-05

> <r_epik_State_Penalty>
0.172914

> <r_epik_Charging_Adjusted_Penalty>
0.338253

> <i_epik_Tot_Q>
1

> <i_epik_Tot_abs_Q>
1

> <s_lp_Force_Field>
S-OPLS

> <r_lp_Energy>
63.8352

> <b_lp_Chiralities_Consistent>
1

> <s_lp_Variant>
ligprep_h3d.sdf:1214-1

> <ROCS_ShapeQuery>
_7L13

> <ROCS_TanimotoCombo>
0.694 

> <ROCS_ShapeTanimoto>
0.599 

> <ROCS_ColorTanimoto>
0.096 

> <ROCS_RefTversky>
0.771 

> <ROCS_RefColorTversky>
0.209 

> <ROCS_RefTverskyCombo>
0.980 

> <ROCS_FitTversky>
0.728 

> <ROCS_FitColorTversky>
0.150 

> <ROCS_FitTverskyCombo>
0.878 

> <ROCS_ColorScore>
-1.922

> <ROCS_Overlap>
1284.632

> <ROCS_Rank>
500                 

$$$$
ligprep_h3d.sdf:4963_1019
  -OEChem-08212117123D

 64 68  0     1  0  0  0  0  0999 V2000
  -19.1803   -5.0595  -33.0855 C   0  0  0  0  0  0  0  0  0  0  0  0
  -21.3440   -5.4554  -34.0850 C   0  0  0  0  0  0  0  0  0  0  0  0
  -24.6499   -5.0723  -25.1465 C   0  0  0  0  0  0  0  0  0  0  0  0
  -23.8771   -3.5006  -23.4822 C   0  0  0  0  0  0  0  0  0  0  0  0
  -18.5920   -5.9089  -34.0225 C   0  0  0  0  0  0  0  0  0  0  0  0
  -20.7556   -6.3048  -35.0221 C   0  0  0  0  0  0  0  0  0  0  0  0
  -25.5651   -5.5917  -24.2310 C   0  0  0  0  0  0  0  0  0  0  0  0
  -24.7924   -4.0200  -22.5667 C   0  0  0  0  0  0  0  0  0  0  0  0
  -16.9936   -6.2410  -26.4214 C   0  0  0  0  0  0  0  0  0  0  0  0
  -16.9685   -3.8962  -25.8402 C   0  0  0  0  0  0  0  0  0  0  0  0
  -15.0646   -5.2899  -25.3210 C   0  0  0  0  0  0  0  0  0  0  0  0
  -20.5563   -4.8328  -33.1168 C   0  0  0  0  0  0  0  0  0  0  0  0
  -17.6199   -4.9949  -26.4007 C   0  0  0  0  0  0  0  0  0  0  0  0
  -23.8059   -4.0267  -24.7721 C   0  0  0  0  0  0  0  0  0  0  0  0
  -19.3797   -6.5316  -34.9908 C   0  0  0  0  0  0  0  0  0  0  0  0
  -25.6364   -5.0655  -22.9411 C   0  0  0  0  0  0  0  0  0  0  0  0
  -15.7160   -6.3886  -25.8814 C   0  0  0  0  0  0  0  0  0  0  0  0
  -15.6908   -4.0437  -25.3003 C   0  0  0  0  0  0  0  0  0  0  0  0
  -22.1555   -4.6713  -31.2238 C   0  0  0  0  0  0  0  0  0  0  0  0
  -22.6871   -5.3904  -28.9102 C   0  0  0  0  0  0  0  0  0  0  0  0
  -19.7807   -5.7790  -27.5665 C   0  0  0  0  0  0  0  0  0  0  0  0
  -19.8958   -3.8408  -26.7629 C   0  0  0  0  0  0  0  0  0  0  0  0
  -20.6888   -4.0502  -29.2521 C   0  0  0  0  0  0  0  0  0  0  0  0
  -22.2209   -4.9037  -27.5419 C   0  0  1  0  0  0  0  0  0  0  0  0
  -20.7476   -4.5878  -27.8184 C   0  0  0  0  0  0  0  0  0  0  0  0
  -21.9182   -2.7342  -32.7409 C   0  0  0  0  0  0  0  0  0  0  0  0
  -22.9894   -3.6594  -27.1011 C   0  0  0  0  0  0  0  0  0  0  0  0
  -21.1934   -3.9127  -32.1028 C   0  0  2  0  0  0  0  0  0  0  0  0
  -18.9037   -4.8461  -26.9438 N   0  0  0  0  0  0  0  0  0  0  0  0
  -21.8469   -4.6891  -29.8729 N   0  0  0  0  0  0  0  0  0  0  0  0
  -22.8893   -3.5066  -25.6889 N   0  0  0  0  0  0  0  0  0  0  0  0
  -23.1381   -5.2303  -31.7142 O   0  0  0  0  0  0  0  0  0  0  0  0
  -18.8052   -7.3594  -35.9058 O   0  0  0  0  0  0  0  0  0  0  0  0
  -26.5154   -5.5643  -22.0620 F   0  0  0  0  0  0  0  0  0  0  0  0
  -15.1142   -7.5850  -25.9031 F   0  0  0  0  0  0  0  0  0  0  0  0
  -15.0645   -2.9882  -24.7639 F   0  0  0  0  0  0  0  0  0  0  0  0
  -18.5591   -4.5787  -32.3347 H   0  0  0  0  0  0  0  0  0  0  0  0
  -22.4170   -5.2847  -34.1169 H   0  0  0  0  0  0  0  0  0  0  0  0
  -24.6030   -5.4896  -26.1491 H   0  0  0  0  0  0  0  0  0  0  0  0
  -23.2240   -2.6860  -23.1798 H   0  0  0  0  0  0  0  0  0  0  0  0
  -17.5194   -6.0814  -33.9932 H   0  0  0  0  0  0  0  0  0  0  0  0
  -21.3745   -6.7865  -35.7739 H   0  0  0  0  0  0  0  0  0  0  0  0
  -26.2226   -6.4055  -24.5222 H   0  0  0  0  0  0  0  0  0  0  0  0
  -24.8482   -3.6109  -21.5623 H   0  0  0  0  0  0  0  0  0  0  0  0
  -17.4917   -7.1034  -26.8564 H   0  0  0  0  0  0  0  0  0  0  0  0
  -17.4470   -2.9204  -25.8198 H   0  0  0  0  0  0  0  0  0  0  0  0
  -14.0692   -5.4051  -24.9021 H   0  0  0  0  0  0  0  0  0  0  0  0
  -22.4846   -6.4608  -29.0345 H   0  0  0  0  0  0  0  0  0  0  0  0
  -23.7485   -5.2160  -29.1128 H   0  0  0  0  0  0  0  0  0  0  0  0
  -20.1381   -6.5423  -26.8664 H   0  0  0  0  0  0  0  0  0  0  0  0
  -19.3443   -6.2590  -28.4465 H   0  0  0  0  0  0  0  0  0  0  0  0
  -19.5498   -2.8408  -27.0362 H   0  0  0  0  0  0  0  0  0  0  0  0
  -20.3005   -3.8373  -25.7454 H   0  0  0  0  0  0  0  0  0  0  0  0
  -20.8440   -2.9667  -29.2879 H   0  0  0  0  0  0  0  0  0  0  0  0
  -19.7689   -4.3029  -29.7871 H   0  0  0  0  0  0  0  0  0  0  0  0
  -22.3454   -5.6843  -26.7832 H   0  0  0  0  0  0  0  0  0  0  0  0
  -22.6998   -3.0836  -33.4248 H   0  0  0  0  0  0  0  0  0  0  0  0
  -22.4048   -2.0937  -31.9968 H   0  0  0  0  0  0  0  0  0  0  0  0
  -21.2196   -2.1136  -33.3128 H   0  0  0  0  0  0  0  0  0  0  0  0
  -22.5439   -2.8077  -27.6120 H   0  0  0  0  0  0  0  0  0  0  0  0
  -24.0269   -3.7988  -27.3996 H   0  0  0  0  0  0  0  0  0  0  0  0
  -20.4239   -3.5198  -31.4297 H   0  0  0  0  0  0  0  0  0  0  0  0
  -22.0993   -2.9850  -25.3000 H   0  0  0  0  0  0  0  0  0  0  0  0
  -19.4785   -7.7136  -36.5084 H   0  0  0  0  0  0  0  0  0  0  0  0
  1  5  1  0  0  0  0
  1 12  2  0  0  0  0
  2  6  2  0  0  0  0
  2 12  1  0  0  0  0
  3  7  1  0  0  0  0
  3 14  2  0  0  0  0
  4  8  2  0  0  0  0
  4 14  1  0  0  0  0
  5 15  2  0  0  0  0
  6 15  1  0  0  0  0
  7 16  2  0  0  0  0
  8 16  1  0  0  0  0
  9 13  2  0  0  0  0
  9 17  1  0  0  0  0
 10 13  1  0  0  0  0
 10 18  2  0  0  0  0
 11 17  2  0  0  0  0
 11 18  1  0  0  0  0
 12 28  1  0  0  0  0
 13 29  1  0  0  0  0
 14 31  1  0  0  0  0
 15 33  1  0  0  0  0
 16 34  1  0  0  0  0
 17 35  1  0  0  0  0
 18 36  1  0  0  0  0
 19 28  1  0  0  0  0
 19 30  1  0  0  0  0
 19 32  2  0  0  0  0
 20 24  1  0  0  0  0
 20 30  1  0  0  0  0
 21 25  1  0  0  0  0
 21 29  1  0  0  0  0
 22 25  1  0  0  0  0
 22 29  1  0  0  0  0
 23 25  1  0  0  0  0
 23 30  1  0  0  0  0
 24 25  1  0  0  0  0
 24 27  1  0  0  0  0
 26 28  1  0  0  0  0
 27 31  1  0  0  0  0
  1 37  1  0  0  0  0
  2 38  1  0  0  0  0
  3 39  1  0  0  0  0
  4 40  1  0  0  0  0
  5 41  1  0  0  0  0
  6 42  1  0  0  0  0
  7 43  1  0  0  0  0
  8 44  1  0  0  0  0
  9 45  1  0  0  0  0
 10 46  1  0  0  0  0
 11 47  1  0  0  0  0
 20 48  1  0  0  0  0
 20 49  1  0  0  0  0
 21 50  1  0  0  0  0
 21 51  1  0  0  0  0
 22 52  1  0  0  0  0
 22 53  1  0  0  0  0
 23 54  1  0  0  0  0
 23 55  1  0  0  0  0
 24 56  1  0  0  0  0
 26 57  1  0  0  0  0
 26 58  1  0  0  0  0
 26 59  1  0  0  0  0
 27 60  1  0  0  0  0
 27 61  1  0  0  0  0
 28 62  1  0  0  0  0
 31 63  1  0  0  0  0
 33 64  1  0  0  0  0
M  END
> <SMILES>
C[C@@H](C(=O)N1CC(CNc2ccc(cc2)F)C2(C1)CN(C2)c1cc(cc(c1)F)F)c1ccc(cc1)O

> <FORMATTED_ID>
H3D-008587

> <MOLFORMULA>
C28H28F3N3O2

> <Exact Mass>
495.21

> <XLogP>
4.55

> <TPSA_NOPS>
55.8

> <s_m_source_file>
ligprep_h3d.sdf

> <i_m_source_file_index>
4963

> <i_lp_mmshare_version>
55123

> <i_f3d_flags>
0

> <s_epik_input>
W2NIXTFbY0hdYyhbT0hdKVtjSF1bY0hdYzFbQ0BASF0oW0NIM10pQyg9TylOKFtDSDJdMilbQ0gyXVtDQEhdKFtDSDJdW05IXWMzW2NIXVtjSF1jKEYpW2NIXVtjSF0zKUMyNFtDSDJdTihbQ0gyXTQpYzVbY0hdYyhGKVtjSF1jKEYpW2NIXTU=

> <s_epik_cmdline>
J2VwaWtfcHl0aG9uJywgJy1waHQnLCAnMC41JywgJy1waCcsICc3LjUnLCAnLXRuJywgJzgnLCAnLW1hJywgJzUwMCcsICctaW1hZScsICc8aW5maWxlLm1hZT4nLCAnLW9tYWUnLCAnPG91dGZpbGUubWFlPic=

> <r_lp_tautomer_probability>
1

> <r_epik_Ionization_Penalty>
0.00482607

> <r_epik_Ionization_Penalty_Charging>
0

> <r_epik_Ionization_Penalty_Neutral>
0.00482607

> <r_epik_State_Penalty>
-0

> <r_epik_Charging_Adjusted_Penalty>
0

> <i_epik_Tot_Q>
0

> <i_epik_Tot_abs_Q>
0

> <s_lp_Force_Field>
S-OPLS

> <r_lp_Energy>
34.2576

> <b_lp_Chiralities_Consistent>
1

> <s_lp_Variant>
ligprep_h3d.sdf:4963-1

> <ROCS_ShapeQuery>
_7L13

> <ROCS_TanimotoCombo>
0.691 

> <ROCS_ShapeTanimoto>
0.632 

> <ROCS_ColorTanimoto>
0.060 

> <ROCS_RefTversky>
0.771 

> <ROCS_RefColorTversky>
0.118 

> <ROCS_RefTverskyCombo>
0.889 

> <ROCS_FitTversky>
0.777 

> <ROCS_FitColorTversky>
0.107 

> <ROCS_FitTverskyCombo>
0.885 

> <ROCS_ColorScore>
-1.068

> <ROCS_Overlap>
1279.680

> <ROCS_Rank>
501                 

$$$$
ligprep_h3d.sdf:1061_13
  -OEChem-08212117123D

 58 64  0     1  0  0  0  0  0999 V2000
  -21.0114   -5.1573  -29.5080 C   0  0  0  0  0  0  0  0  0  0  0  0
  -21.7751   -4.3847  -30.3855 C   0  0  0  0  0  0  0  0  0  0  0  0
  -21.1164   -4.9120  -28.1177 C   0  0  0  0  0  0  0  0  0  0  0  0
  -21.9948   -3.9413  -27.5807 C   0  0  0  0  0  0  0  0  0  0  0  0
  -22.6033   -3.4183  -29.8583 C   0  0  0  0  0  0  0  0  0  0  0  0
  -22.7426   -3.1616  -28.4942 C   0  0  0  0  0  0  0  0  0  0  0  0
  -21.9736   -4.2751  -31.7744 C   0  0  0  0  0  0  0  0  0  0  0  0
  -21.3575   -5.0428  -32.8184 C   0  0  0  0  0  0  0  0  0  0  0  0
  -18.9036   -3.8424  -26.2537 C   0  0  0  0  0  0  0  0  0  0  0  0
  -19.2479   -6.0484  -25.0222 C   0  0  0  0  0  0  0  0  0  0  0  0
  -17.0658   -5.2001  -25.8534 C   0  0  0  0  0  0  0  0  0  0  0  0
  -20.2683   -5.7479  -27.1969 C   0  0  0  0  0  0  0  0  0  0  0  0
  -23.0467   -2.7926  -25.6424 C   0  0  0  0  0  0  0  0  0  0  0  0
  -18.9260   -6.9211  -33.9213 C   0  0  0  0  0  0  0  0  0  0  0  0
  -19.0403   -4.9760  -35.1413 C   0  0  0  0  0  0  0  0  0  0  0  0
  -20.4084   -6.6287  -34.0410 C   0  0  2  0  0  0  0  0  0  0  0  0
  -20.4840   -5.3743  -34.9106 C   0  0  1  0  0  0  0  0  0  0  0  0
  -21.2047   -4.4694  -25.2394 C   0  0  2  0  0  0  0  0  0  0  0  0
  -23.4115   -3.1066  -24.1885 C   0  0  1  0  0  0  0  0  0  0  0  0
  -21.0361   -3.5332  -24.0068 C   0  0  2  0  0  0  0  0  0  0  0  0
  -19.8862   -4.9848  -25.9045 C   0  0  2  0  0  0  0  0  0  0  0  0
  -24.4010   -4.2640  -24.0681 C   0  0  0  0  0  0  0  0  0  0  0  0
  -20.0733   -4.0065  -22.9251 C   0  0  0  0  0  0  0  0  0  0  0  0
  -22.8515   -3.3172  -32.0869 N   0  0  0  0  0  0  0  0  0  0  0  0
  -17.6448   -4.1984  -26.5166 N   0  5  0  0  0  0  0  0  0  0  0  0
  -20.9594   -6.2772  -32.6940 N   0  0  0  0  0  0  0  0  0  0  0  0
  -21.1509   -4.4589  -34.0272 N   0  0  0  0  0  0  0  0  0  0  0  0
  -17.8686   -6.0422  -25.0861 N   0  0  0  0  0  0  0  0  0  0  0  0
  -22.0960   -3.7634  -26.1987 N   0  0  3  0  0  0  0  0  0  0  0  0
  -19.3069   -2.6877  -26.3905 O   0  0  0  0  0  0  0  0  0  0  0  0
  -19.8842   -6.8802  -24.3790 O   0  0  0  0  0  0  0  0  0  0  0  0
  -15.8536   -5.4251  -25.9048 O   0  0  0  0  0  0  0  0  0  0  0  0
  -23.2474   -2.7746  -30.8700 O   0  0  0  0  0  0  0  0  0  0  0  0
  -18.2643   -5.6709  -34.1576 O   0  0  0  0  0  0  0  0  0  0  0  0
  -22.2968   -3.3744  -23.3427 O   0  0  0  0  0  0  0  0  0  0  0  0
  -23.5005   -2.1221  -28.1247 F   0  0  0  0  0  0  0  0  0  0  0  0
  -20.3425   -5.9250  -29.8864 H   0  0  0  0  0  0  0  0  0  0  0  0
  -20.8349   -6.6585  -26.9588 H   0  0  0  0  0  0  0  0  0  0  0  0
  -19.3620   -6.0751  -27.7237 H   0  0  0  0  0  0  0  0  0  0  0  0
  -23.9610   -2.8300  -26.2702 H   0  0  0  0  0  0  0  0  0  0  0  0
  -22.7284   -1.7392  -25.6848 H   0  0  0  0  0  0  0  0  0  0  0  0
  -18.6279   -7.3130  -32.9446 H   0  0  0  0  0  0  0  0  0  0  0  0
  -18.6011   -7.6219  -34.6985 H   0  0  0  0  0  0  0  0  0  0  0  0
  -18.7031   -5.3102  -36.1293 H   0  0  0  0  0  0  0  0  0  0  0  0
  -18.8573   -3.8995  -35.0689 H   0  0  0  0  0  0  0  0  0  0  0  0
  -20.9760   -7.4755  -34.4389 H   0  0  0  0  0  0  0  0  0  0  0  0
  -21.0445   -5.5040  -35.8404 H   0  0  0  0  0  0  0  0  0  0  0  0
  -21.7825   -5.3456  -24.9037 H   0  0  0  0  0  0  0  0  0  0  0  0
  -23.9521   -2.1976  -23.7495 H   0  0  0  0  0  0  0  0  0  0  0  0
  -20.7013   -2.5271  -24.3180 H   0  0  0  0  0  0  0  0  0  0  0  0
  -23.9584   -5.1763  -24.4682 H   0  0  0  0  0  0  0  0  0  0  0  0
  -25.3095   -4.0375  -24.6263 H   0  0  0  0  0  0  0  0  0  0  0  0
  -24.6599   -4.4259  -23.0216 H   0  0  0  0  0  0  0  0  0  0  0  0
  -20.3592   -5.0003  -22.5802 H   0  0  0  0  0  0  0  0  0  0  0  0
  -20.0952   -3.3190  -22.0794 H   0  0  0  0  0  0  0  0  0  0  0  0
  -19.0585   -4.0480  -23.3211 H   0  0  0  0  0  0  0  0  0  0  0  0
  -21.3712   -3.5031  -34.2820 H   0  0  0  0  0  0  0  0  0  0  0  0
  -17.3863   -6.7262  -24.5109 H   0  0  0  0  0  0  0  0  0  0  0  0
  1  2  2  0  0  0  0
  1  3  1  0  0  0  0
  2  5  1  0  0  0  0
  2  7  1  0  0  0  0
  3  4  2  0  0  0  0
  3 12  1  0  0  0  0
  4  6  1  0  0  0  0
  4 29  1  0  0  0  0
  5  6  2  0  0  0  0
  5 33  1  0  0  0  0
  6 36  1  0  0  0  0
  7  8  1  0  0  0  0
  7 24  2  0  0  0  0
  8 26  2  0  0  0  0
  8 27  1  0  0  0  0
  9 21  1  0  0  0  0
  9 25  1  0  0  0  0
  9 30  2  0  0  0  0
 10 21  1  0  0  0  0
 10 28  1  0  0  0  0
 10 31  2  0  0  0  0
 11 25  1  0  0  0  0
 11 28  1  0  0  0  0
 11 32  2  0  0  0  0
 12 21  1  0  0  0  0
 13 19  1  0  0  0  0
 13 29  1  0  0  0  0
 14 16  1  0  0  0  0
 14 34  1  0  0  0  0
 15 17  1  0  0  0  0
 15 34  1  0  0  0  0
 16 17  1  0  0  0  0
 16 26  1  0  0  0  0
 17 27  1  0  0  0  0
 18 20  1  0  0  0  0
 18 21  1  0  0  0  0
 18 29  1  0  0  0  0
 19 22  1  0  0  0  0
 19 35  1  0  0  0  0
 20 23  1  0  0  0  0
 20 35  1  0  0  0  0
 24 33  1  0  0  0  0
  1 37  1  0  0  0  0
 12 38  1  0  0  0  0
 12 39  1  0  0  0  0
 13 40  1  0  0  0  0
 13 41  1  0  0  0  0
 14 42  1  0  0  0  0
 14 43  1  0  0  0  0
 15 44  1  0  0  0  0
 15 45  1  0  0  0  0
 16 46  1  0  0  0  0
 17 47  1  0  0  0  0
 18 48  1  0  0  0  0
 19 49  1  0  0  0  0
 20 50  1  0  0  0  0
 22 51  1  0  0  0  0
 22 52  1  0  0  0  0
 22 53  1  0  0  0  0
 23 54  1  0  0  0  0
 23 55  1  0  0  0  0
 23 56  1  0  0  0  0
 27 57  1  0  0  0  0
 28 58  1  0  0  0  0
M  CHG  1  25  -1
M  END
> <SMILES>
C[C@@H]1CN2[C@H]([C@H](C)O1)C1(Cc3cc4c(noc4c(c32)F)C2=N[C@@H]3COC[C@@H]3N2)C(=O)NC(=O)NC1=O

> <FORMATTED_ID>
H3D-006623

> <MOLFORMULA>
C23H23FN6O6

> <Exact Mass>
498.17

> <XLogP>
-1.12

> <TPSA_NOPS>
147.7

> <s_m_source_file>
ligprep_h3d.sdf

> <i_m_source_file_index>
1061

> <i_lp_mmshare_version>
55123

> <i_f3d_flags>
0

> <s_epik_input>
Tz1DMVtOSF1DKD1PKVtOSF1DKD1PKUMxMltDQEBIXTNOKFtDSDJdW0NAQEhdKFtDSDNdKU9bQ0BIXTNbQ0gzXSljNGMoW0NIMl0yKVtjSF1jNWMoYzRGKW9uYzVDKD1ONilbTkhdW0NASF0oW0NASF02NylbQ0gyXU9bQ0gyXTc=

> <s_epik_cmdline>
J2VwaWtfcHl0aG9uJywgJy1waHQnLCAnMC41JywgJy1waCcsICc3LjUnLCAnLXRuJywgJzgnLCAnLW1hJywgJzUwMCcsICctaW1hZScsICc8aW5maWxlLm1hZT4nLCAnLW9tYWUnLCAnPG91dGZpbGUubWFlPic=

> <r_lp_tautomer_probability>
0.5

> <r_epik_Ionization_Penalty>
0.483136

> <r_epik_Ionization_Penalty_Charging>
0.455373

> <r_epik_Ionization_Penalty_Neutral>
0.027763

> <r_epik_State_Penalty>
0.481213

> <r_epik_Charging_Adjusted_Penalty>
0.936587

> <i_epik_Tot_Q>
-1

> <i_epik_Tot_abs_Q>
1

> <s_epik_Chemistry_Notes>
This compound has an imine and may undergo hydrolysis.

> <s_lp_Force_Field>
S-OPLS

> <r_lp_Energy>
42.9122

> <b_lp_Chiralities_Consistent>
1

> <s_lp_Variant>
ligprep_h3d.sdf:1061-2

> <ROCS_ShapeQuery>
_7L13

> <ROCS_TanimotoCombo>
0.720 

> <ROCS_ShapeTanimoto>
0.607 

> <ROCS_ColorTanimoto>
0.114 

> <ROCS_RefTversky>
0.771 

> <ROCS_RefColorTversky>
0.293 

> <ROCS_RefTverskyCombo>
1.064 

> <ROCS_FitTversky>
0.740 

> <ROCS_FitColorTversky>
0.157 

> <ROCS_FitTverskyCombo>
0.897 

> <ROCS_ColorScore>
-2.775

> <ROCS_Overlap>
1283.200

> <ROCS_Rank>
502                 

$$$$
ligprep_h3d.sdf:871_1706
  -OEChem-08212117123D

 67 70  0     1  0  0  0  0  0999 V2000
  -16.7461   -5.7296  -26.5369 C   0  0  0  0  0  0  0  0  0  0  0  0
  -22.8426   -4.2621  -29.2673 C   0  0  0  0  0  0  0  0  0  0  0  0
  -20.7468   -4.3745  -25.6804 C   0  0  0  0  0  0  0  0  0  0  0  0
  -16.6606   -4.3283  -26.6409 C   0  0  0  0  0  0  0  0  0  0  0  0
  -20.7634   -4.5326  -28.0928 C   0  0  0  0  0  0  0  0  0  0  0  0
  -20.8203   -4.6847  -30.5146 C   0  0  0  0  0  0  0  0  0  0  0  0
  -22.1899   -4.4530  -30.4877 C   0  0  0  0  0  0  0  0  0  0  0  0
  -20.1067   -4.7247  -29.3202 C   0  0  0  0  0  0  0  0  0  0  0  0
  -22.1538   -4.2971  -28.0579 C   0  0  0  0  0  0  0  0  0  0  0  0
  -20.0695   -4.5678  -26.8758 C   0  0  0  0  0  0  0  0  0  0  0  0
  -22.1071   -4.1508  -25.7468 C   0  0  0  0  0  0  0  0  0  0  0  0
  -18.0907   -5.9984  -26.6158 C   0  0  0  0  0  0  0  0  0  0  0  0
  -19.5852   -3.7853  -32.5747 C   0  0  0  0  0  0  0  0  0  0  0  0
  -20.0355   -6.1373  -32.2905 C   0  0  0  0  0  0  0  0  0  0  0  0
  -18.9732   -4.0118  -33.7417 C   0  0  0  0  0  0  0  0  0  0  0  0
  -20.1436   -4.8847  -31.8117 C   0  0  0  0  0  0  0  0  0  0  0  0
  -19.3549   -6.4069  -33.5952 C   0  0  0  0  0  0  0  0  0  0  0  0
  -22.8756   -3.9408  -24.5319 C   0  0  0  0  0  0  0  0  0  0  0  0
  -23.0044   -4.4000  -31.7412 C   0  0  0  0  0  0  0  0  0  0  0  0
  -18.6296   -4.9795  -29.4290 C   0  0  0  0  0  0  0  0  0  0  0  0
  -18.8173   -7.2825  -26.5689 C   0  0  0  0  0  0  0  0  0  0  0  0
  -26.4777   -5.5293  -24.1353 C   0  0  0  0  0  0  0  0  0  0  0  0
  -20.8677   -7.1238  -37.3869 C   0  0  0  0  0  0  0  0  0  0  0  0
  -18.1652   -5.4331  -35.5407 C   0  0  0  0  0  0  0  0  0  0  0  0
  -25.1438   -3.4724  -23.5692 C   0  0  0  0  0  0  0  0  0  0  0  0
  -19.1864   -5.6615  -36.6401 C   0  0  0  0  0  0  0  0  0  0  0  0
  -25.7038   -4.7941  -23.0493 C   0  0  1  0  0  0  0  0  0  0  0  0
  -17.8557   -3.7474  -26.7757 N   0  0  0  0  0  0  0  0  0  0  0  0
  -22.8138   -4.1091  -26.8995 N   0  0  0  0  0  0  0  0  0  0  0  0
  -18.7049   -4.7888  -26.7570 N   0  0  0  0  0  0  0  0  0  0  0  0
  -18.8487   -5.2866  -34.2612 N   0  0  0  0  0  0  0  0  0  0  0  0
  -24.2507   -3.7199  -24.6782 N   0  0  0  0  0  0  0  0  0  0  0  0
  -19.2812   -7.5680  -33.9949 O   0  0  0  0  0  0  0  0  0  0  0  0
  -22.3150   -3.9399  -23.4207 O   0  0  0  0  0  0  0  0  0  0  0  0
  -26.5890   -4.5189  -21.9653 O   0  0  0  0  0  0  0  0  0  0  0  0
  -19.9011   -6.8626  -36.3787 O   0  0  0  0  0  0  0  0  0  0  0  0
  -15.9435   -6.4433  -26.4215 H   0  0  0  0  0  0  0  0  0  0  0  0
  -23.9168   -4.0814  -29.2614 H   0  0  0  0  0  0  0  0  0  0  0  0
  -20.2327   -4.3968  -24.7238 H   0  0  0  0  0  0  0  0  0  0  0  0
  -15.7771   -3.7064  -26.6242 H   0  0  0  0  0  0  0  0  0  0  0  0
  -19.6723   -2.7769  -32.1826 H   0  0  0  0  0  0  0  0  0  0  0  0
  -20.4331   -6.9999  -31.7621 H   0  0  0  0  0  0  0  0  0  0  0  0
  -18.5504   -3.2009  -34.3245 H   0  0  0  0  0  0  0  0  0  0  0  0
  -23.0402   -3.3748  -32.1251 H   0  0  0  0  0  0  0  0  0  0  0  0
  -22.5800   -5.0504  -32.5147 H   0  0  0  0  0  0  0  0  0  0  0  0
  -24.0296   -4.7435  -31.5598 H   0  0  0  0  0  0  0  0  0  0  0  0
  -18.4350   -6.0542  -29.3882 H   0  0  0  0  0  0  0  0  0  0  0  0
  -18.2362   -4.5807  -30.3683 H   0  0  0  0  0  0  0  0  0  0  0  0
  -18.0910   -4.4877  -28.6140 H   0  0  0  0  0  0  0  0  0  0  0  0
  -19.0888   -7.5477  -25.5340 H   0  0  0  0  0  0  0  0  0  0  0  0
  -19.7469   -7.2537  -27.1625 H   0  0  0  0  0  0  0  0  0  0  0  0
  -18.2180   -8.1121  -26.9814 H   0  0  0  0  0  0  0  0  0  0  0  0
  -27.2917   -4.9136  -24.5300 H   0  0  0  0  0  0  0  0  0  0  0  0
  -25.8179   -5.8138  -24.9626 H   0  0  0  0  0  0  0  0  0  0  0  0
  -26.9046   -6.4575  -23.7403 H   0  0  0  0  0  0  0  0  0  0  0  0
  -21.3963   -8.0515  -37.1543 H   0  0  0  0  0  0  0  0  0  0  0  0
  -20.3705   -7.2085  -38.3564 H   0  0  0  0  0  0  0  0  0  0  0  0
  -21.5821   -6.2977  -37.4169 H   0  0  0  0  0  0  0  0  0  0  0  0
  -17.4699   -6.2750  -35.4638 H   0  0  0  0  0  0  0  0  0  0  0  0
  -17.5986   -4.5168  -35.7317 H   0  0  0  0  0  0  0  0  0  0  0  0
  -25.9510   -2.8155  -23.9108 H   0  0  0  0  0  0  0  0  0  0  0  0
  -24.5871   -2.9522  -22.7829 H   0  0  0  0  0  0  0  0  0  0  0  0
  -18.6805   -5.7725  -37.6043 H   0  0  0  0  0  0  0  0  0  0  0  0
  -19.9003   -4.8339  -36.7047 H   0  0  0  0  0  0  0  0  0  0  0  0
  -24.8962   -5.4322  -22.6724 H   0  0  0  0  0  0  0  0  0  0  0  0
  -24.6474   -3.6678  -25.6107 H   0  0  0  0  0  0  0  0  0  0  0  0
  -26.9116   -5.3766  -21.6490 H   0  0  0  0  0  0  0  0  0  0  0  0
  1  4  1  0  0  0  0
  1 12  2  0  0  0  0
  2  7  1  0  0  0  0
  2  9  2  0  0  0  0
  3 10  2  0  0  0  0
  3 11  1  0  0  0  0
  4 28  2  0  0  0  0
  5  8  2  0  0  0  0
  5  9  1  0  0  0  0
  5 10  1  0  0  0  0
  6  7  2  0  0  0  0
  6  8  1  0  0  0  0
  6 16  1  0  0  0  0
  7 19  1  0  0  0  0
  8 20  1  0  0  0  0
  9 29  1  0  0  0  0
 10 30  1  0  0  0  0
 11 18  1  0  0  0  0
 11 29  2  0  0  0  0
 12 21  1  0  0  0  0
 12 30  1  0  0  0  0
 13 15  2  0  0  0  0
 13 16  1  0  0  0  0
 14 16  2  0  0  0  0
 14 17  1  0  0  0  0
 15 31  1  0  0  0  0
 17 31  1  0  0  0  0
 17 33  2  0  0  0  0
 18 32  1  0  0  0  0
 18 34  2  0  0  0  0
 22 27  1  0  0  0  0
 23 36  1  0  0  0  0
 24 26  1  0  0  0  0
 24 31  1  0  0  0  0
 25 27  1  0  0  0  0
 25 32  1  0  0  0  0
 26 36  1  0  0  0  0
 27 35  1  0  0  0  0
 28 30  1  0  0  0  0
  1 37  1  0  0  0  0
  2 38  1  0  0  0  0
  3 39  1  0  0  0  0
  4 40  1  0  0  0  0
 13 41  1  0  0  0  0
 14 42  1  0  0  0  0
 15 43  1  0  0  0  0
 19 44  1  0  0  0  0
 19 45  1  0  0  0  0
 19 46  1  0  0  0  0
 20 47  1  0  0  0  0
 20 48  1  0  0  0  0
 20 49  1  0  0  0  0
 21 50  1  0  0  0  0
 21 51  1  0  0  0  0
 21 52  1  0  0  0  0
 22 53  1  0  0  0  0
 22 54  1  0  0  0  0
 22 55  1  0  0  0  0
 23 56  1  0  0  0  0
 23 57  1  0  0  0  0
 23 58  1  0  0  0  0
 24 59  1  0  0  0  0
 24 60  1  0  0  0  0
 25 61  1  0  0  0  0
 25 62  1  0  0  0  0
 26 63  1  0  0  0  0
 26 64  1  0  0  0  0
 27 65  1  0  0  0  0
 32 66  1  0  0  0  0
 35 67  1  0  0  0  0
M  END
> <SMILES>
COCCN1C=CC(=CC1=O)c1c(cc2nc(cc(c2c1C)-n1nccc1C)C(=O)NC[C@H](C)O)C

> <FORMATTED_ID>
H3D-005716

> <MOLFORMULA>
C27H31N5O4

> <Exact Mass>
489.24

> <XLogP>
2.45

> <TPSA_NOPS>
109.6

> <s_m_source_file>
ligprep_h3d.sdf

> <i_m_source_file_index>
871

> <i_lp_mmshare_version>
55123

> <i_f3d_flags>
0

> <s_epik_input>
W0NIM11PW0NIMl1bQ0gyXW4xW2NIXVtjSF1jKFtjSF1jMT1PKS1jKGMoW2NIXTIpW0NIM10pYyhbQ0gzXSljKGMyMyljKC1uNG5bY0hdW2NIXWM0W0NIM10pW2NIXWMobjMpQyg9TylbTkhdW0NIMl1bQ0BIXShbQ0gzXSlbT0hd

> <s_epik_cmdline>
J2VwaWtfcHl0aG9uJywgJy1waHQnLCAnMC41JywgJy1waCcsICc3LjUnLCAnLXRuJywgJzgnLCAnLW1hJywgJzUwMCcsICctaW1hZScsICc8aW5maWxlLm1hZT4nLCAnLW9tYWUnLCAnPG91dGZpbGUubWFlPic=

> <r_lp_tautomer_probability>
1

> <r_epik_Ionization_Penalty>
1.60453e-05

> <r_epik_Ionization_Penalty_Charging>
2.32377e-07

> <r_epik_Ionization_Penalty_Neutral>
1.5813e-05

> <r_epik_State_Penalty>
-0

> <r_epik_Charging_Adjusted_Penalty>
2.32377e-07

> <i_epik_Tot_Q>
0

> <i_epik_Tot_abs_Q>
0

> <s_lp_Force_Field>
S-OPLS

> <r_lp_Energy>
67.7578

> <b_lp_Chiralities_Consistent>
1

> <s_lp_Variant>
ligprep_h3d.sdf:871-1

> <ROCS_ShapeQuery>
_7L13

> <ROCS_TanimotoCombo>
0.761 

> <ROCS_ShapeTanimoto>
0.628 

> <ROCS_ColorTanimoto>
0.133 

> <ROCS_RefTversky>
0.771 

> <ROCS_RefColorTversky>
0.269 

> <ROCS_RefTverskyCombo>
1.040 

> <ROCS_FitTversky>
0.773 

> <ROCS_FitColorTversky>
0.208 

> <ROCS_FitTverskyCombo>
0.980 

> <ROCS_ColorScore>
-2.465

> <ROCS_Overlap>
1279.992

> <ROCS_Rank>
503                 

$$$$
ligprep_h3d.sdf:1812_113
  -OEChem-08212117123D

 65 70  0     0  0  0  0  0  0999 V2000
  -22.5996   -3.0755  -33.7174 C   0  0  0  0  0  0  0  0  0  0  0  0
  -22.3459   -3.2316  -32.3548 C   0  0  0  0  0  0  0  0  0  0  0  0
  -19.6141   -4.1024  -30.0558 C   0  0  0  0  0  0  0  0  0  0  0  0
  -21.6976   -3.5757  -34.6566 C   0  0  0  0  0  0  0  0  0  0  0  0
  -25.5209   -5.5239  -24.0436 C   0  0  0  0  0  0  0  0  0  0  0  0
  -24.5148   -3.6042  -22.9761 C   0  0  0  0  0  0  0  0  0  0  0  0
  -19.3612   -4.2631  -28.6929 C   0  0  0  0  0  0  0  0  0  0  0  0
  -24.5060   -5.5237  -25.0005 C   0  0  0  0  0  0  0  0  0  0  0  0
  -23.4998   -3.6040  -23.9329 C   0  0  0  0  0  0  0  0  0  0  0  0
  -21.9858   -4.1551  -29.6176 C   0  0  0  0  0  0  0  0  0  0  0  0
  -20.2882   -4.3880  -32.8703 C   0  0  0  0  0  0  0  0  0  0  0  0
  -20.9266   -4.0497  -30.5177 C   0  0  0  0  0  0  0  0  0  0  0  0
  -21.1902   -3.8878  -31.9312 C   0  0  0  0  0  0  0  0  0  0  0  0
  -21.7252   -4.3163  -28.2511 C   0  0  0  0  0  0  0  0  0  0  0  0
  -20.5419   -4.2319  -34.2330 C   0  0  0  0  0  0  0  0  0  0  0  0
  -25.5253   -4.5641  -23.0314 C   0  0  0  0  0  0  0  0  0  0  0  0
  -20.4158   -4.3712  -27.7782 C   0  0  0  0  0  0  0  0  0  0  0  0
  -23.4955   -4.5638  -24.9451 C   0  0  0  0  0  0  0  0  0  0  0  0
  -22.8332   -4.4020  -27.2804 C   0  0  0  0  0  0  0  0  0  0  0  0
  -21.0842   -4.6676  -25.5518 C   0  0  0  0  0  0  0  0  0  0  0  0
  -19.5921   -4.7567  -35.2222 C   0  0  0  0  0  0  0  0  0  0  0  0
  -18.9901   -7.8383  -36.9732 C   0  0  0  0  0  0  0  0  0  0  0  0
  -20.5390   -8.2784  -35.0379 C   0  0  0  0  0  0  0  0  0  0  0  0
  -18.3801   -6.6771  -36.1928 C   0  0  0  0  0  0  0  0  0  0  0  0
  -19.9100   -7.1049  -34.2878 C   0  0  0  0  0  0  0  0  0  0  0  0
  -18.7402  -10.9441  -35.4768 C   0  0  0  0  0  0  0  0  0  0  0  0
  -19.4344  -11.0388  -36.8069 C   0  0  0  0  0  0  0  0  0  0  0  0
  -19.5691   -8.9075  -36.0420 C   0  0  0  0  0  0  0  0  0  0  0  0
  -26.6105   -4.5644  -22.0084 C   0  0  0  0  0  0  0  0  0  0  0  0
  -20.1166   -4.5562  -26.4259 N   0  0  0  0  0  0  0  0  0  0  0  0
  -22.4469   -4.5635  -25.9331 N   0  0  0  0  0  0  0  0  0  0  0  0
  -19.3293   -6.1300  -35.2221 N   0  0  0  0  0  0  0  0  0  0  0  0
  -20.7346   -4.9467  -24.2485 N   0  0  0  0  0  0  0  0  0  0  0  0
  -23.9820   -4.2725  -27.6971 O   0  0  0  0  0  0  0  0  0  0  0  0
  -19.0894   -3.9299  -35.9819 O   0  0  0  0  0  0  0  0  0  0  0  0
  -18.4900   -9.5466  -35.3359 O   0  0  0  0  0  0  0  0  0  0  0  0
  -20.2768   -9.8873  -36.8193 O   0  0  0  0  0  0  0  0  0  0  0  0
  -27.5300   -5.5589  -22.1859 F   0  0  0  0  0  0  0  0  0  0  0  0
  -26.1567   -4.7233  -20.7300 F   0  0  0  0  0  0  0  0  0  0  0  0
  -27.3257   -3.4019  -22.0012 F   0  0  0  0  0  0  0  0  0  0  0  0
  -23.4994   -2.5645  -34.0472 H   0  0  0  0  0  0  0  0  0  0  0  0
  -23.0586   -2.8361  -31.6349 H   0  0  0  0  0  0  0  0  0  0  0  0
  -18.7758   -4.0180  -30.7432 H   0  0  0  0  0  0  0  0  0  0  0  0
  -21.9055   -3.4478  -35.7157 H   0  0  0  0  0  0  0  0  0  0  0  0
  -26.3055   -6.2741  -24.0958 H   0  0  0  0  0  0  0  0  0  0  0  0
  -24.5108   -2.8523  -22.1913 H   0  0  0  0  0  0  0  0  0  0  0  0
  -18.3310   -4.2999  -28.3460 H   0  0  0  0  0  0  0  0  0  0  0  0
  -24.5123   -6.2766  -25.7847 H   0  0  0  0  0  0  0  0  0  0  0  0
  -22.7178   -2.8507  -23.8810 H   0  0  0  0  0  0  0  0  0  0  0  0
  -23.0098   -4.1147  -29.9825 H   0  0  0  0  0  0  0  0  0  0  0  0
  -19.3851   -4.8999  -32.5432 H   0  0  0  0  0  0  0  0  0  0  0  0
  -19.7736   -7.4638  -37.6450 H   0  0  0  0  0  0  0  0  0  0  0  0
  -18.2187   -8.2802  -37.6166 H   0  0  0  0  0  0  0  0  0  0  0  0
  -20.8649   -9.0318  -34.3091 H   0  0  0  0  0  0  0  0  0  0  0  0
  -21.4465   -7.9417  -35.5572 H   0  0  0  0  0  0  0  0  0  0  0  0
  -17.4951   -7.0111  -35.6314 H   0  0  0  0  0  0  0  0  0  0  0  0
  -18.0336   -5.9107  -36.8968 H   0  0  0  0  0  0  0  0  0  0  0  0
  -20.6612   -6.6255  -33.6510 H   0  0  0  0  0  0  0  0  0  0  0  0
  -19.1002   -7.4496  -33.6332 H   0  0  0  0  0  0  0  0  0  0  0  0
  -19.3433  -11.3157  -34.6449 H   0  0  0  0  0  0  0  0  0  0  0  0
  -17.7762  -11.4640  -35.4869 H   0  0  0  0  0  0  0  0  0  0  0  0
  -18.7481  -11.0258  -37.6571 H   0  0  0  0  0  0  0  0  0  0  0  0
  -20.0709  -11.9282  -36.8679 H   0  0  0  0  0  0  0  0  0  0  0  0
  -19.7721   -5.0489  -24.0377 H   0  0  0  0  0  0  0  0  0  0  0  0
  -21.4615   -5.0326  -23.5809 H   0  0  0  0  0  0  0  0  0  0  0  0
  1  2  1  0  0  0  0
  1  4  2  0  0  0  0
  2 13  2  0  0  0  0
  3  7  1  0  0  0  0
  3 12  2  0  0  0  0
  4 15  1  0  0  0  0
  5  8  1  0  0  0  0
  5 16  2  0  0  0  0
  6  9  2  0  0  0  0
  6 16  1  0  0  0  0
  7 17  2  0  0  0  0
  8 18  2  0  0  0  0
  9 18  1  0  0  0  0
 10 12  1  0  0  0  0
 10 14  2  0  0  0  0
 11 13  1  0  0  0  0
 11 15  2  0  0  0  0
 12 13  1  0  0  0  0
 14 17  1  0  0  0  0
 14 19  1  0  0  0  0
 15 21  1  0  0  0  0
 16 29  1  0  0  0  0
 17 30  1  0  0  0  0
 18 31  1  0  0  0  0
 19 31  1  0  0  0  0
 19 34  2  0  0  0  0
 20 30  2  0  0  0  0
 20 31  1  0  0  0  0
 20 33  1  0  0  0  0
 21 32  1  0  0  0  0
 21 35  2  0  0  0  0
 22 24  1  0  0  0  0
 22 28  1  0  0  0  0
 23 25  1  0  0  0  0
 23 28  1  0  0  0  0
 24 32  1  0  0  0  0
 25 32  1  0  0  0  0
 26 27  1  0  0  0  0
 26 36  1  0  0  0  0
 27 37  1  0  0  0  0
 28 36  1  0  0  0  0
 28 37  1  0  0  0  0
 29 38  1  0  0  0  0
 29 39  1  0  0  0  0
 29 40  1  0  0  0  0
  1 41  1  0  0  0  0
  2 42  1  0  0  0  0
  3 43  1  0  0  0  0
  4 44  1  0  0  0  0
  5 45  1  0  0  0  0
  6 46  1  0  0  0  0
  7 47  1  0  0  0  0
  8 48  1  0  0  0  0
  9 49  1  0  0  0  0
 10 50  1  0  0  0  0
 11 51  1  0  0  0  0
 22 52  1  0  0  0  0
 22 53  1  0  0  0  0
 23 54  1  0  0  0  0
 23 55  1  0  0  0  0
 24 56  1  0  0  0  0
 24 57  1  0  0  0  0
 25 58  1  0  0  0  0
 25 59  1  0  0  0  0
 26 60  1  0  0  0  0
 26 61  1  0  0  0  0
 27 62  1  0  0  0  0
 27 63  1  0  0  0  0
 33 64  1  0  0  0  0
 33 65  1  0  0  0  0
M  END
> <SMILES>
NC1=Nc2ccc(cc2C(=O)N1c1ccc(cc1)C(F)(F)F)-c1cccc(c1)C(=O)N1CCC2(CC1)OCCO2

> <FORMATTED_ID>
H3D-003057

> <MOLFORMULA>
C29H25F3N4O4

> <Exact Mass>
550.18

> <XLogP>
5.57

> <TPSA_NOPS>
97.5

> <s_m_source_file>
ligprep_h3d.sdf

> <i_m_source_file_index>
1812

> <i_lp_mmshare_version>
55123

> <i_f3d_flags>
0

> <s_epik_input>
W2NIXTFbY0hdYyhDKEYpKEYpRilbY0hdW2NIXWMxLW4oYyhuMilbTkgyXSljKD1PKWMoYzIzKVtjSF1jKFtjSF1bY0hdMyktYzRbY0hdW2NIXVtjSF1jKFtjSF00KUMoPU8pTihbQ0gyXVtDSDJdNSlbQ0gyXVtDSDJdQzU2T1tDSDJdW0NIMl1PNg==

> <s_epik_cmdline>
J2VwaWtfcHl0aG9uJywgJy1waHQnLCAnMC41JywgJy1waCcsICc3LjUnLCAnLXRuJywgJzgnLCAnLW1hJywgJzUwMCcsICctaW1hZScsICc8aW5maWxlLm1hZT4nLCAnLW9tYWUnLCAnPG91dGZpbGUubWFlPic=

> <r_lp_tautomer_probability>
1

> <r_epik_Ionization_Penalty>
3.61862e-06

> <r_epik_Ionization_Penalty_Charging>
3.91892e-10

> <r_epik_Ionization_Penalty_Neutral>
3.61823e-06

> <r_epik_State_Penalty>
-0

> <r_epik_Charging_Adjusted_Penalty>
3.91892e-10

> <i_epik_Tot_Q>
0

> <i_epik_Tot_abs_Q>
0

> <s_lp_Force_Field>
S-OPLS

> <r_lp_Energy>
54.318

> <b_lp_Chiralities_Consistent>
1

> <s_lp_Variant>
ligprep_h3d.sdf:1812-1

> <ROCS_ShapeQuery>
_7L13

> <ROCS_TanimotoCombo>
0.671 

> <ROCS_ShapeTanimoto>
0.571 

> <ROCS_ColorTanimoto>
0.100 

> <ROCS_RefTversky>
0.771 

> <ROCS_RefColorTversky>
0.218 

> <ROCS_RefTverskyCombo>
0.989 

> <ROCS_FitTversky>
0.688 

> <ROCS_FitColorTversky>
0.156 

> <ROCS_FitTverskyCombo>
0.844 

> <ROCS_ColorScore>
-2.003

> <ROCS_Overlap>
1288.697

> <ROCS_Rank>
504                 

$$$$
ligprep_h3d.sdf:4986_115
  -OEChem-08212117123D

 63 67  0     1  0  0  0  0  0999 V2000
  -21.6884   -6.6116  -32.9033 C   0  0  0  0  0  0  0  0  0  0  0  0
  -20.7861   -4.6458  -33.9797 C   0  0  0  0  0  0  0  0  0  0  0  0
  -24.9925   -4.5489  -25.2954 C   0  0  0  0  0  0  0  0  0  0  0  0
  -23.3246   -4.8966  -23.5825 C   0  0  0  0  0  0  0  0  0  0  0  0
  -20.8460   -7.4176  -33.6690 C   0  0  0  0  0  0  0  0  0  0  0  0
  -19.9436   -5.4518  -34.7454 C   0  0  0  0  0  0  0  0  0  0  0  0
  -25.9447   -4.2769  -24.3131 C   0  0  0  0  0  0  0  0  0  0  0  0
  -24.2767   -4.6246  -22.6001 C   0  0  0  0  0  0  0  0  0  0  0  0
  -16.6949   -5.3343  -26.2841 C   0  0  0  0  0  0  0  0  0  0  0  0
  -17.9513   -4.3191  -24.4875 C   0  0  0  0  0  0  0  0  0  0  0  0
  -15.7502   -5.2205  -24.0633 C   0  0  0  0  0  0  0  0  0  0  0  0
  -21.6585   -5.2257  -33.0586 C   0  0  0  0  0  0  0  0  0  0  0  0
  -17.8474   -4.6955  -25.8266 C   0  0  0  0  0  0  0  0  0  0  0  0
  -23.6825   -4.8588  -24.9301 C   0  0  0  0  0  0  0  0  0  0  0  0
  -19.9736   -6.8377  -34.5901 C   0  0  0  0  0  0  0  0  0  0  0  0
  -25.5868   -4.3147  -22.9654 C   0  0  0  0  0  0  0  0  0  0  0  0
  -15.6463   -5.5968  -25.4024 C   0  0  0  0  0  0  0  0  0  0  0  0
  -16.9027   -4.5816  -23.6058 C   0  0  0  0  0  0  0  0  0  0  0  0
  -21.8342   -3.4049  -31.3139 C   0  0  0  0  0  0  0  0  0  0  0  0
  -21.8717   -5.2273  -29.5490 C   0  0  0  0  0  0  0  0  0  0  0  0
  -19.0574   -4.6998  -28.1011 C   0  0  0  0  0  0  0  0  0  0  0  0
  -20.0117   -3.5454  -26.6219 C   0  0  0  0  0  0  0  0  0  0  0  0
  -20.8198   -3.0876  -29.0759 C   0  0  0  0  0  0  0  0  0  0  0  0
  -21.5976   -5.1671  -28.0473 C   0  0  1  0  0  0  0  0  0  0  0  0
  -20.4892   -4.1031  -27.9858 C   0  0  0  0  0  0  0  0  0  0  0  0
  -22.8459   -4.7392  -27.2778 C   0  0  0  0  0  0  0  0  0  0  0  0
  -22.5721   -4.3508  -32.2273 C   0  0  1  0  0  0  0  0  0  0  0  0
  -18.9014   -4.4309  -26.7125 N   0  0  0  0  0  0  0  0  0  0  0  0
  -21.5391   -3.8958  -30.0521 N   0  0  0  0  0  0  0  0  0  0  0  0
  -23.5145   -3.5682  -33.0029 N   0  0  0  0  0  0  0  0  0  0  0  0
  -22.7290   -5.1313  -25.9138 N   0  0  0  0  0  0  0  0  0  0  0  0
  -21.5356   -2.2735  -31.7002 O   0  0  0  0  0  0  0  0  0  0  0  0
  -19.1508   -7.6243  -35.3363 O   0  0  0  0  0  0  0  0  0  0  0  0
  -26.5012   -4.0535  -22.0221 F   0  0  0  0  0  0  0  0  0  0  0  0
  -14.5390   -6.2086  -25.8426 F   0  0  0  0  0  0  0  0  0  0  0  0
  -17.0017   -4.2184  -22.3204 F   0  0  0  0  0  0  0  0  0  0  0  0
  -22.3649   -7.0719  -32.1882 H   0  0  0  0  0  0  0  0  0  0  0  0
  -20.7560   -3.5668  -34.1075 H   0  0  0  0  0  0  0  0  0  0  0  0
  -25.2822   -4.5164  -26.3426 H   0  0  0  0  0  0  0  0  0  0  0  0
  -22.3067   -5.1372  -23.2866 H   0  0  0  0  0  0  0  0  0  0  0  0
  -20.8738   -8.4967  -33.5432 H   0  0  0  0  0  0  0  0  0  0  0  0
  -19.2662   -4.9941  -35.4608 H   0  0  0  0  0  0  0  0  0  0  0  0
  -26.9647   -4.0354  -24.5971 H   0  0  0  0  0  0  0  0  0  0  0  0
  -23.9987   -4.6542  -21.5507 H   0  0  0  0  0  0  0  0  0  0  0  0
  -16.6032   -5.6310  -27.3255 H   0  0  0  0  0  0  0  0  0  0  0  0
  -18.8445   -3.8200  -24.1206 H   0  0  0  0  0  0  0  0  0  0  0  0
  -14.9328   -5.4238  -23.3778 H   0  0  0  0  0  0  0  0  0  0  0  0
  -21.1912   -5.9295  -30.0428 H   0  0  0  0  0  0  0  0  0  0  0  0
  -22.8982   -5.5002  -29.8088 H   0  0  0  0  0  0  0  0  0  0  0  0
  -19.0052   -5.7721  -28.3241 H   0  0  0  0  0  0  0  0  0  0  0  0
  -18.3428   -4.1580  -28.7280 H   0  0  0  0  0  0  0  0  0  0  0  0
  -19.7212   -2.4911  -26.6023 H   0  0  0  0  0  0  0  0  0  0  0  0
  -20.6559   -3.7753  -25.7656 H   0  0  0  0  0  0  0  0  0  0  0  0
  -21.5028   -2.3082  -28.7164 H   0  0  0  0  0  0  0  0  0  0  0  0
  -19.9423   -2.6140  -29.5299 H   0  0  0  0  0  0  0  0  0  0  0  0
  -21.2637   -6.1397  -27.6715 H   0  0  0  0  0  0  0  0  0  0  0  0
  -22.9205   -3.6564  -27.3611 H   0  0  0  0  0  0  0  0  0  0  0  0
  -23.6973   -5.2295  -27.7466 H   0  0  0  0  0  0  0  0  0  0  0  0
  -23.1725   -4.9903  -31.5710 H   0  0  0  0  0  0  0  0  0  0  0  0
  -23.3553   -2.6020  -32.8217 H   0  0  0  0  0  0  0  0  0  0  0  0
  -23.3745   -3.7635  -33.9693 H   0  0  0  0  0  0  0  0  0  0  0  0
  -21.8985   -5.6492  -25.6149 H   0  0  0  0  0  0  0  0  0  0  0  0
  -18.6077   -7.0780  -35.9267 H   0  0  0  0  0  0  0  0  0  0  0  0
  1  5  1  0  0  0  0
  1 12  2  0  0  0  0
  2  6  2  0  0  0  0
  2 12  1  0  0  0  0
  3  7  1  0  0  0  0
  3 14  2  0  0  0  0
  4  8  2  0  0  0  0
  4 14  1  0  0  0  0
  5 15  2  0  0  0  0
  6 15  1  0  0  0  0
  7 16  2  0  0  0  0
  8 16  1  0  0  0  0
  9 13  2  0  0  0  0
  9 17  1  0  0  0  0
 10 13  1  0  0  0  0
 10 18  2  0  0  0  0
 11 17  2  0  0  0  0
 11 18  1  0  0  0  0
 12 27  1  0  0  0  0
 13 28  1  0  0  0  0
 14 31  1  0  0  0  0
 15 33  1  0  0  0  0
 16 34  1  0  0  0  0
 17 35  1  0  0  0  0
 18 36  1  0  0  0  0
 19 27  1  0  0  0  0
 19 29  1  0  0  0  0
 19 32  2  0  0  0  0
 20 24  1  0  0  0  0
 20 29  1  0  0  0  0
 21 25  1  0  0  0  0
 21 28  1  0  0  0  0
 22 25  1  0  0  0  0
 22 28  1  0  0  0  0
 23 25  1  0  0  0  0
 23 29  1  0  0  0  0
 24 25  1  0  0  0  0
 24 26  1  0  0  0  0
 26 31  1  0  0  0  0
 27 30  1  0  0  0  0
  1 37  1  0  0  0  0
  2 38  1  0  0  0  0
  3 39  1  0  0  0  0
  4 40  1  0  0  0  0
  5 41  1  0  0  0  0
  6 42  1  0  0  0  0
  7 43  1  0  0  0  0
  8 44  1  0  0  0  0
  9 45  1  0  0  0  0
 10 46  1  0  0  0  0
 11 47  1  0  0  0  0
 20 48  1  0  0  0  0
 20 49  1  0  0  0  0
 21 50  1  0  0  0  0
 21 51  1  0  0  0  0
 22 52  1  0  0  0  0
 22 53  1  0  0  0  0
 23 54  1  0  0  0  0
 23 55  1  0  0  0  0
 24 56  1  0  0  0  0
 26 57  1  0  0  0  0
 26 58  1  0  0  0  0
 27 59  1  0  0  0  0
 30 60  1  0  0  0  0
 30 61  1  0  0  0  0
 31 62  1  0  0  0  0
 33 63  1  0  0  0  0
M  END
> <SMILES>
N[C@H](C(=O)N1CC(CNc2ccc(cc2)F)C2(C1)CN(C2)c1cc(cc(c1)F)F)c1ccc(cc1)O

> <FORMATTED_ID>
H3D-008716

> <MOLFORMULA>
C27H27F3N4O2

> <Exact Mass>
496.21

> <XLogP>
3.16

> <TPSA_NOPS>
81.8

> <s_m_source_file>
ligprep_h3d.sdf

> <i_m_source_file_index>
4986

> <i_lp_mmshare_version>
55123

> <i_f3d_flags>
0

> <s_epik_input>
W2NIXTFbY0hdYyhbT0hdKVtjSF1bY0hdYzFbQ0BIXShbTkgyXSlDKD1PKU4oW0NIMl0yKVtDSDJdW0NASF0oW0NIMl1bTkhdYzNbY0hdW2NIXWMoRilbY0hdW2NIXTMpQzI0W0NIMl1OKFtDSDJdNCljNVtjSF1jKEYpW2NIXWMoRilbY0hdNQ==

> <s_epik_cmdline>
J2VwaWtfcHl0aG9uJywgJy1waHQnLCAnMC41JywgJy1waCcsICc3LjUnLCAnLXRuJywgJzgnLCAnLW1hJywgJzUwMCcsICctaW1hZScsICc8aW5maWxlLm1hZT4nLCAnLW9tYWUnLCAnPG91dGZpbGUubWFlPic=

> <r_lp_tautomer_probability>
1

> <r_epik_Ionization_Penalty>
0.0506136

> <r_epik_Ionization_Penalty_Charging>
0

> <r_epik_Ionization_Penalty_Neutral>
0.0506136

> <r_epik_State_Penalty>
-0

> <r_epik_Charging_Adjusted_Penalty>
0

> <i_epik_Tot_Q>
0

> <i_epik_Tot_abs_Q>
0

> <s_lp_Force_Field>
S-OPLS

> <r_lp_Energy>
45.1024

> <b_lp_Chiralities_Consistent>
1

> <s_lp_Variant>
ligprep_h3d.sdf:4986-1

> <ROCS_ShapeQuery>
_7L13

> <ROCS_TanimotoCombo>
0.686 

> <ROCS_ShapeTanimoto>
0.631 

> <ROCS_ColorTanimoto>
0.055 

> <ROCS_RefTversky>
0.771 

> <ROCS_RefColorTversky>
0.115 

> <ROCS_RefTverskyCombo>
0.886 

> <ROCS_FitTversky>
0.777 

> <ROCS_FitColorTversky>
0.096 

> <ROCS_FitTverskyCombo>
0.872 

> <ROCS_ColorScore>
-1.045

> <ROCS_Overlap>
1279.584

> <ROCS_Rank>
505                 

$$$$
ligprep_h3d.sdf:5178_1951
  -OEChem-08212117123D

 65 70  0     1  0  0  0  0  0999 V2000
  -24.9904   -4.6244  -22.8387 C   0  0  0  0  0  0  0  0  0  0  0  0
  -15.5456   -5.2297  -26.3759 C   0  0  0  0  0  0  0  0  0  0  0  0
  -24.2609   -3.5063  -23.2429 C   0  0  0  0  0  0  0  0  0  0  0  0
  -25.2534   -5.6508  -23.7460 C   0  0  0  0  0  0  0  0  0  0  0  0
  -16.0256   -3.9416  -26.6126 C   0  0  0  0  0  0  0  0  0  0  0  0
  -16.3634   -6.1764  -25.7590 C   0  0  0  0  0  0  0  0  0  0  0  0
  -23.7945   -3.4146  -24.5542 C   0  0  0  0  0  0  0  0  0  0  0  0
  -24.7870   -5.5591  -25.0573 C   0  0  0  0  0  0  0  0  0  0  0  0
  -17.3235   -3.6002  -26.2323 C   0  0  0  0  0  0  0  0  0  0  0  0
  -17.6613   -5.8350  -25.3786 C   0  0  0  0  0  0  0  0  0  0  0  0
  -24.0575   -4.4409  -25.4615 C   0  0  0  0  0  0  0  0  0  0  0  0
  -18.1413   -4.5469  -25.6153 C   0  0  0  0  0  0  0  0  0  0  0  0
  -19.5817   -4.2132  -34.8101 C   0  0  0  0  0  0  0  0  0  0  0  0
  -20.4647   -3.5649  -33.8624 C   0  0  0  0  0  0  0  0  0  0  0  0
  -20.7170   -7.5622  -34.9576 C   0  0  0  0  0  0  0  0  0  0  0  0
  -19.5765   -7.4542  -35.8725 C   0  0  0  0  0  0  0  0  0  0  0  0
  -20.7809   -6.3126  -34.4959 C   0  0  0  0  0  0  0  0  0  0  0  0
  -19.7433   -5.5087  -35.0982 C   0  0  0  0  0  0  0  0  0  0  0  0
  -21.4630   -4.2313  -33.2475 C   0  0  0  0  0  0  0  0  0  0  0  0
  -21.7292   -5.7079  -33.5072 C   0  0  0  0  0  0  0  0  0  0  0  0
  -21.0446   -3.8359  -30.2568 C   0  0  0  0  0  0  0  0  0  0  0  0
  -23.3452   -3.2275  -27.6201 C   0  0  0  0  0  0  0  0  0  0  0  0
  -23.5133   -5.3124  -27.8249 C   0  0  0  0  0  0  0  0  0  0  0  0
  -23.3640   -3.9928  -30.0947 C   0  0  0  0  0  0  0  0  0  0  0  0
  -21.2960   -4.4676  -28.8871 C   0  0  2  0  0  0  0  0  0  0  0  0
  -22.8037   -4.2286  -28.6810 C   0  0  0  0  0  0  0  0  0  0  0  0
  -22.3687   -3.5669  -32.2737 C   0  0  0  0  0  0  0  0  0  0  0  0
  -20.3905   -3.9009  -27.8094 C   0  0  0  0  0  0  0  0  0  0  0  0
  -19.0137   -6.2865  -35.9597 N   0  0  0  0  0  0  0  0  0  0  0  0
  -23.5888   -4.3492  -26.7794 N   0  0  0  0  0  0  0  0  0  0  0  0
  -22.2362   -4.2560  -30.9989 N   0  0  1  0  0  0  0  0  0  0  0  0
  -20.6718   -4.5204  -26.5543 N   0  0  0  0  0  0  0  0  0  0  0  0
  -20.1887   -5.0102  -24.0649 O   0  0  0  0  0  0  0  0  0  0  0  0
  -19.7987   -2.6777  -24.9204 O   0  0  0  0  0  0  0  0  0  0  0  0
  -19.7849   -4.1127  -25.1305 S   0  0  0  0  0  0  0  0  0  0  0  0
  -25.3538   -4.6956  -21.8176 H   0  0  0  0  0  0  0  0  0  0  0  0
  -14.5348   -5.4960  -26.6712 H   0  0  0  0  0  0  0  0  0  0  0  0
  -24.0563   -2.7073  -22.5366 H   0  0  0  0  0  0  0  0  0  0  0  0
  -25.8216   -6.5214  -23.4310 H   0  0  0  0  0  0  0  0  0  0  0  0
  -15.3888   -3.2039  -27.0919 H   0  0  0  0  0  0  0  0  0  0  0  0
  -15.9891   -7.1789  -25.5742 H   0  0  0  0  0  0  0  0  0  0  0  0
  -23.2270   -2.5391  -24.8592 H   0  0  0  0  0  0  0  0  0  0  0  0
  -24.9979   -6.3652  -25.7555 H   0  0  0  0  0  0  0  0  0  0  0  0
  -17.6872   -2.5936  -26.4205 H   0  0  0  0  0  0  0  0  0  0  0  0
  -18.2892   -6.5799  -24.8976 H   0  0  0  0  0  0  0  0  0  0  0  0
  -18.7986   -3.6205  -35.2695 H   0  0  0  0  0  0  0  0  0  0  0  0
  -20.2859   -2.5123  -33.6675 H   0  0  0  0  0  0  0  0  0  0  0  0
  -21.3156   -8.4257  -34.7404 H   0  0  0  0  0  0  0  0  0  0  0  0
  -19.2520   -8.3426  -36.4329 H   0  0  0  0  0  0  0  0  0  0  0  0
  -22.7548   -5.8200  -33.8794 H   0  0  0  0  0  0  0  0  0  0  0  0
  -21.6521   -6.2517  -32.5577 H   0  0  0  0  0  0  0  0  0  0  0  0
  -20.9797   -2.7430  -30.1836 H   0  0  0  0  0  0  0  0  0  0  0  0
  -20.1245   -4.2168  -30.7102 H   0  0  0  0  0  0  0  0  0  0  0  0
  -22.6196   -2.5373  -27.1758 H   0  0  0  0  0  0  0  0  0  0  0  0
  -24.2576   -2.6791  -27.8754 H   0  0  0  0  0  0  0  0  0  0  0  0
  -24.4920   -5.6533  -28.1731 H   0  0  0  0  0  0  0  0  0  0  0  0
  -22.8949   -6.1751  -27.5510 H   0  0  0  0  0  0  0  0  0  0  0  0
  -24.2093   -4.6512  -30.3298 H   0  0  0  0  0  0  0  0  0  0  0  0
  -23.7055   -2.9525  -30.1950 H   0  0  0  0  0  0  0  0  0  0  0  0
  -21.1117   -5.5510  -28.9693 H   0  0  0  0  0  0  0  0  0  0  0  0
  -23.3975   -3.6320  -32.6364 H   0  0  0  0  0  0  0  0  0  0  0  0
  -22.0803   -2.5178  -32.1713 H   0  0  0  0  0  0  0  0  0  0  0  0
  -19.3581   -4.0984  -28.1042 H   0  0  0  0  0  0  0  0  0  0  0  0
  -20.5762   -2.8267  -27.7495 H   0  0  0  0  0  0  0  0  0  0  0  0
  -21.6338   -4.9013  -26.3972 H   0  0  0  0  0  0  0  0  0  0  0  0
  1  3  2  0  0  0  0
  1  4  1  0  0  0  0
  2  5  2  0  0  0  0
  2  6  1  0  0  0  0
  3  7  1  0  0  0  0
  4  8  2  0  0  0  0
  5  9  1  0  0  0  0
  6 10  2  0  0  0  0
  7 11  2  0  0  0  0
  8 11  1  0  0  0  0
  9 12  2  0  0  0  0
 10 12  1  0  0  0  0
 11 30  1  0  0  0  0
 12 35  1  0  0  0  0
 13 14  1  0  0  0  0
 13 18  2  0  0  0  0
 14 19  2  0  0  0  0
 15 16  1  0  0  0  0
 15 17  2  0  0  0  0
 16 29  2  0  0  0  0
 17 18  1  0  0  0  0
 17 20  1  0  0  0  0
 18 29  1  0  0  0  0
 19 20  1  0  0  0  0
 19 27  1  0  0  0  0
 21 25  1  0  0  0  0
 21 31  1  0  0  0  0
 22 26  1  0  0  0  0
 22 30  1  0  0  0  0
 23 26  1  0  0  0  0
 23 30  1  0  0  0  0
 24 26  1  0  0  0  0
 24 31  1  0  0  0  0
 25 26  1  0  0  0  0
 25 28  1  0  0  0  0
 27 31  1  0  0  0  0
 28 32  1  0  0  0  0
 32 35  1  0  0  0  0
 33 35  2  0  0  0  0
 34 35  2  0  0  0  0
  1 36  1  0  0  0  0
  2 37  1  0  0  0  0
  3 38  1  0  0  0  0
  4 39  1  0  0  0  0
  5 40  1  0  0  0  0
  6 41  1  0  0  0  0
  7 42  1  0  0  0  0
  8 43  1  0  0  0  0
  9 44  1  0  0  0  0
 10 45  1  0  0  0  0
 13 46  1  0  0  0  0
 14 47  1  0  0  0  0
 15 48  1  0  0  0  0
 16 49  1  0  0  0  0
 20 50  1  0  0  0  0
 20 51  1  0  0  0  0
 21 52  1  0  0  0  0
 21 53  1  0  0  0  0
 22 54  1  0  0  0  0
 22 55  1  0  0  0  0
 23 56  1  0  0  0  0
 23 57  1  0  0  0  0
 24 58  1  0  0  0  0
 24 59  1  0  0  0  0
 25 60  1  0  0  0  0
 27 61  1  0  0  0  0
 27 62  1  0  0  0  0
 28 63  1  0  0  0  0
 28 64  1  0  0  0  0
 32 65  1  0  0  0  0
M  END
> <SMILES>
O=S(=O)(NCC1CN(Cc2ccc3[nH]ccc3c2)CC21CN(C2)c1ccccc1)c1ccccc1

> <FORMATTED_ID>
H3D-013995

> <MOLFORMULA>
C28H30N4O2S

> <Exact Mass>
486.21

> <XLogP>
4.15

> <TPSA_NOPS>
76.8

> <s_m_source_file>
ligprep_h3d.sdf

> <i_m_source_file_index>
5178

> <i_lp_mmshare_version>
55123

> <i_f3d_flags>
0

> <s_epik_input>
W2NIXTFbY0hdW2NIXVtjSF1bY0hdYzFOKFtDSDJdMilbQ0gyXUMyM1tDQEBIXShbQ0gyXU4oW0NIMl0zKVtDSDJdQyg9W0NIXVtDSF09NClbQ0gyXUMoQzQ1KT1bQ0hdW0NIXT1ONSlbQ0gyXVtOSF1TKD1PKSg9TyljNltjSF1bY0hdW2NIXVtjSF1bY0hdNg==

> <s_epik_cmdline>
J2VwaWtfcHl0aG9uJywgJy1waHQnLCAnMC41JywgJy1waCcsICc3LjUnLCAnLXRuJywgJzgnLCAnLW1hJywgJzUwMCcsICctaW1hZScsICc8aW5maWxlLm1hZT4nLCAnLW9tYWUnLCAnPG91dGZpbGUubWFlPic=

> <r_epik_Ionization_Penalty>
0.139896

> <r_epik_Ionization_Penalty_Charging>
0

> <r_epik_Ionization_Penalty_Neutral>
0.139896

> <r_epik_State_Penalty>
0.120735

> <r_epik_Charging_Adjusted_Penalty>
0.120735

> <i_epik_Tot_Q>
0

> <i_epik_Tot_abs_Q>
0

> <s_epik_Chemistry_Notes>
This compound has an imine and may undergo hydrolysis.

> <s_lp_Force_Field>
S-OPLS

> <r_lp_Energy>
12.2241

> <b_lp_Chiralities_Consistent>
1

> <s_lp_Variant>
ligprep_h3d.sdf:5178-1

> <ROCS_ShapeQuery>
_7L13

> <ROCS_TanimotoCombo>
0.708 

> <ROCS_ShapeTanimoto>
0.647 

> <ROCS_ColorTanimoto>
0.060 

> <ROCS_RefTversky>
0.771 

> <ROCS_RefColorTversky>
0.125 

> <ROCS_RefTverskyCombo>
0.896 

> <ROCS_FitTversky>
0.801 

> <ROCS_FitColorTversky>
0.104 

> <ROCS_FitTverskyCombo>
0.906 

> <ROCS_ColorScore>
-1.139

> <ROCS_Overlap>
1277.368

> <ROCS_Rank>
506                 

$$$$
ligprep_h3d.sdf:1407_1986
  -OEChem-08212117123D

 67 71  0     1  0  0  0  0  0999 V2000
  -21.1210   -4.4680  -31.7373 C   0  0  0  0  0  0  0  0  0  0  0  0
  -21.4833   -6.8076  -31.2559 C   0  0  0  0  0  0  0  0  0  0  0  0
  -20.7173   -4.7967  -33.0313 C   0  0  0  0  0  0  0  0  0  0  0  0
  -21.0797   -7.1364  -32.5500 C   0  0  0  0  0  0  0  0  0  0  0  0
  -17.1813   -5.8344  -26.2557 C   0  0  0  0  0  0  0  0  0  0  0  0
  -23.6799   -4.5424  -27.9533 C   0  0  0  0  0  0  0  0  0  0  0  0
  -20.9543   -4.3216  -24.8239 C   0  0  0  0  0  0  0  0  0  0  0  0
  -19.6520   -7.6565  -35.1830 C   0  0  0  0  0  0  0  0  0  0  0  0
  -17.1176   -4.4535  -26.5216 C   0  0  0  0  0  0  0  0  0  0  0  0
  -21.4187   -4.7296  -27.1612 C   0  0  0  0  0  0  0  0  0  0  0  0
  -21.5039   -5.4734  -30.8495 C   0  0  0  0  0  0  0  0  0  0  0  0
  -20.6967   -6.1309  -33.4377 C   0  0  0  0  0  0  0  0  0  0  0  0
  -21.9244   -5.1317  -29.5009 C   0  0  0  0  0  0  0  0  0  0  0  0
  -23.2653   -4.8720  -29.2461 C   0  0  0  0  0  0  0  0  0  0  0  0
  -21.0014   -5.0611  -28.4615 C   0  0  0  0  0  0  0  0  0  0  0  0
  -22.7785   -4.4648  -26.8952 C   0  0  0  0  0  0  0  0  0  0  0  0
  -20.5108   -4.6514  -26.0965 C   0  0  0  0  0  0  0  0  0  0  0  0
  -20.2815   -6.4696  -34.7699 C   0  0  0  0  0  0  0  0  0  0  0  0
  -22.3033   -4.0797  -24.6611 C   0  0  0  0  0  0  0  0  0  0  0  0
  -18.5170   -6.0844  -26.0560 C   0  0  0  0  0  0  0  0  0  0  0  0
  -19.4731   -7.4788  -36.5293 C   0  0  0  0  0  0  0  0  0  0  0  0
  -22.8338   -3.7311  -23.3543 C   0  0  0  0  0  0  0  0  0  0  0  0
  -24.2983   -4.9326  -30.3262 C   0  0  0  0  0  0  0  0  0  0  0  0
  -19.5695   -5.3545  -28.8126 C   0  0  0  0  0  0  0  0  0  0  0  0
  -19.2213   -7.3425  -25.7400 C   0  0  0  0  0  0  0  0  0  0  0  0
  -26.5837   -4.6315  -20.2261 C   0  0  0  0  0  0  0  0  0  0  0  0
  -18.8856   -8.3019  -37.5936 C   0  0  0  0  0  0  0  0  0  0  0  0
  -24.8281   -3.8211  -21.8358 C   0  0  0  0  0  0  0  0  0  0  0  0
  -25.8523   -4.9117  -21.5320 C   0  0  2  0  0  0  0  0  0  0  0  0
  -18.3174   -3.8672  -26.4943 N   0  0  0  0  0  0  0  0  0  0  0  0
  -23.2118   -4.1445  -25.6613 N   0  0  0  0  0  0  0  0  0  0  0  0
  -20.4779   -5.6206  -35.7826 N   0  0  0  0  0  0  0  0  0  0  0  0
  -19.1476   -4.8847  -26.2089 N   0  0  0  0  0  0  0  0  0  0  0  0
  -24.1523   -4.1147  -23.0791 N   0  0  0  0  0  0  0  0  0  0  0  0
  -22.1387   -3.1007  -22.5368 O   0  0  0  0  0  0  0  0  0  0  0  0
  -19.9619   -6.2675  -36.8992 O   0  0  0  0  0  0  0  0  0  0  0  0
  -19.9159   -8.8689  -38.4076 O   0  0  0  0  0  0  0  0  0  0  0  0
  -26.8072   -4.9478  -22.5909 O   0  0  0  0  0  0  0  0  0  0  0  0
  -21.1319   -3.4235  -31.4349 H   0  0  0  0  0  0  0  0  0  0  0  0
  -21.7789   -7.6028  -30.5755 H   0  0  0  0  0  0  0  0  0  0  0  0
  -20.4216   -4.0014  -33.7116 H   0  0  0  0  0  0  0  0  0  0  0  0
  -21.0690   -8.1812  -32.8514 H   0  0  0  0  0  0  0  0  0  0  0  0
  -16.3707   -6.5473  -26.2153 H   0  0  0  0  0  0  0  0  0  0  0  0
  -24.7345   -4.3414  -27.7680 H   0  0  0  0  0  0  0  0  0  0  0  0
  -20.2718   -4.2542  -23.9812 H   0  0  0  0  0  0  0  0  0  0  0  0
  -19.3682   -8.5167  -34.5940 H   0  0  0  0  0  0  0  0  0  0  0  0
  -16.2468   -3.8501  -26.7343 H   0  0  0  0  0  0  0  0  0  0  0  0
  -24.4040   -3.9522  -30.8030 H   0  0  0  0  0  0  0  0  0  0  0  0
  -24.0252   -5.6681  -31.0917 H   0  0  0  0  0  0  0  0  0  0  0  0
  -25.2721   -5.2347  -29.9235 H   0  0  0  0  0  0  0  0  0  0  0  0
  -19.3709   -6.4227  -28.6946 H   0  0  0  0  0  0  0  0  0  0  0  0
  -19.3570   -5.0633  -29.8450 H   0  0  0  0  0  0  0  0  0  0  0  0
  -18.8899   -4.7910  -28.1672 H   0  0  0  0  0  0  0  0  0  0  0  0
  -19.2959   -7.4932  -24.6506 H   0  0  0  0  0  0  0  0  0  0  0  0
  -20.2450   -7.3582  -26.1514 H   0  0  0  0  0  0  0  0  0  0  0  0
  -18.7084   -8.2219  -26.1657 H   0  0  0  0  0  0  0  0  0  0  0  0
  -27.0793   -3.6562  -20.2488 H   0  0  0  0  0  0  0  0  0  0  0  0
  -27.3342   -5.4037  -20.0236 H   0  0  0  0  0  0  0  0  0  0  0  0
  -25.8834   -4.6455  -19.3839 H   0  0  0  0  0  0  0  0  0  0  0  0
  -18.2160   -7.7217  -38.2578 H   0  0  0  0  0  0  0  0  0  0  0  0
  -18.2767   -9.1352  -37.1925 H   0  0  0  0  0  0  0  0  0  0  0  0
  -25.3152   -2.8441  -21.9255 H   0  0  0  0  0  0  0  0  0  0  0  0
  -24.0800   -3.7600  -21.0386 H   0  0  0  0  0  0  0  0  0  0  0  0
  -25.3659   -5.8927  -21.4820 H   0  0  0  0  0  0  0  0  0  0  0  0
  -24.6966   -4.5714  -23.8036 H   0  0  0  0  0  0  0  0  0  0  0  0
  -19.4673   -9.3958  -39.0849 H   0  0  0  0  0  0  0  0  0  0  0  0
  -27.4296   -5.6593  -22.3758 H   0  0  0  0  0  0  0  0  0  0  0  0
  1  3  1  0  0  0  0
  1 11  2  0  0  0  0
  2  4  2  0  0  0  0
  2 11  1  0  0  0  0
  3 12  2  0  0  0  0
  4 12  1  0  0  0  0
  5  9  1  0  0  0  0
  5 20  2  0  0  0  0
  6 14  2  0  0  0  0
  6 16  1  0  0  0  0
  7 17  1  0  0  0  0
  7 19  2  0  0  0  0
  8 18  1  0  0  0  0
  8 21  2  0  0  0  0
  9 30  2  0  0  0  0
 10 15  1  0  0  0  0
 10 16  1  0  0  0  0
 10 17  2  0  0  0  0
 11 13  1  0  0  0  0
 12 18  1  0  0  0  0
 13 14  1  0  0  0  0
 13 15  2  0  0  0  0
 14 23  1  0  0  0  0
 15 24  1  0  0  0  0
 16 31  2  0  0  0  0
 17 33  1  0  0  0  0
 18 32  2  0  0  0  0
 19 22  1  0  0  0  0
 19 31  1  0  0  0  0
 20 25  1  0  0  0  0
 20 33  1  0  0  0  0
 21 27  1  0  0  0  0
 21 36  1  0  0  0  0
 22 34  1  0  0  0  0
 22 35  2  0  0  0  0
 26 29  1  0  0  0  0
 27 37  1  0  0  0  0
 28 29  1  0  0  0  0
 28 34  1  0  0  0  0
 29 38  1  0  0  0  0
 30 33  1  0  0  0  0
 32 36  1  0  0  0  0
  1 39  1  0  0  0  0
  2 40  1  0  0  0  0
  3 41  1  0  0  0  0
  4 42  1  0  0  0  0
  5 43  1  0  0  0  0
  6 44  1  0  0  0  0
  7 45  1  0  0  0  0
  8 46  1  0  0  0  0
  9 47  1  0  0  0  0
 23 48  1  0  0  0  0
 23 49  1  0  0  0  0
 23 50  1  0  0  0  0
 24 51  1  0  0  0  0
 24 52  1  0  0  0  0
 24 53  1  0  0  0  0
 25 54  1  0  0  0  0
 25 55  1  0  0  0  0
 25 56  1  0  0  0  0
 26 57  1  0  0  0  0
 26 58  1  0  0  0  0
 26 59  1  0  0  0  0
 27 60  1  0  0  0  0
 27 61  1  0  0  0  0
 28 62  1  0  0  0  0
 28 63  1  0  0  0  0
 29 64  1  0  0  0  0
 34 65  1  0  0  0  0
 37 66  1  0  0  0  0
 38 67  1  0  0  0  0
M  END
> <SMILES>
C[C@@H](O)CNC(=O)c1cc(c2c(c(c(cc2n1)C)-c1ccc(cc1)-c1cc(on1)CO)C)-n1nccc1C

> <FORMATTED_ID>
H3D-012437

> <MOLFORMULA>
C29H29N5O4

> <Exact Mass>
511.22

> <XLogP>
3.19

> <TPSA_NOPS>
126.6

> <s_m_source_file>
ligprep_h3d.sdf

> <i_m_source_file_index>
1407

> <i_lp_mmshare_version>
55123

> <i_f3d_flags>
0

> <s_epik_input>
W0NIM11jMVtjSF1bY0hdbm4xLWMyW2NIXWMoQyg9TylbTkhdW0NIMl1bQ0BASF0oW0NIM10pW09IXSluYyhjMjMpW2NIXWMoW0NIM10pYyhjM1tDSDNdKS1jNFtjSF1bY0hdYyhbY0hdW2NIXTQpLWM1W2NIXWMob241KVtDSDJdW09IXQ==

> <s_epik_cmdline>
J2VwaWtfcHl0aG9uJywgJy1waHQnLCAnMC41JywgJy1waCcsICc3LjUnLCAnLXRuJywgJzgnLCAnLW1hJywgJzUwMCcsICctaW1hZScsICc8aW5maWxlLm1hZT4nLCAnLW9tYWUnLCAnPG91dGZpbGUubWFlPic=

> <r_lp_tautomer_probability>
1

> <r_epik_Ionization_Penalty>
0.000187131

> <r_epik_Ionization_Penalty_Charging>
0

> <r_epik_Ionization_Penalty_Neutral>
0.000187131

> <r_epik_State_Penalty>
-0

> <r_epik_Charging_Adjusted_Penalty>
0

> <i_epik_Tot_Q>
0

> <i_epik_Tot_abs_Q>
0

> <s_lp_Force_Field>
S-OPLS

> <r_lp_Energy>
52.7062

> <b_lp_Chiralities_Consistent>
1

> <s_lp_Variant>
ligprep_h3d.sdf:1407-1

> <ROCS_ShapeQuery>
_7L13

> <ROCS_TanimotoCombo>
0.731 

> <ROCS_ShapeTanimoto>
0.597 

> <ROCS_ColorTanimoto>
0.134 

> <ROCS_RefTversky>
0.771 

> <ROCS_RefColorTversky>
0.293 

> <ROCS_RefTverskyCombo>
1.064 

> <ROCS_FitTversky>
0.726 

> <ROCS_FitColorTversky>
0.197 

> <ROCS_FitTverskyCombo>
0.923 

> <ROCS_ColorScore>
-2.711

> <ROCS_Overlap>
1284.478

> <ROCS_Rank>
507                 

$$$$
ligprep_h3d.sdf:1675_1909
  -OEChem-08212117123D

 75 80  0     0  0  0  0  0  0999 V2000
  -20.0539   -3.9356  -32.4762 C   0  0  0  0  0  0  0  0  0  0  0  0
  -20.8138   -6.2229  -32.3085 C   0  0  0  0  0  0  0  0  0  0  0  0
  -19.5723   -4.1897  -33.7603 C   0  0  0  0  0  0  0  0  0  0  0  0
  -20.3323   -6.4770  -33.5927 C   0  0  0  0  0  0  0  0  0  0  0  0
  -16.9545   -6.4807  -26.8814 C   0  0  0  0  0  0  0  0  0  0  0  0
  -22.9708   -3.9850  -28.9691 C   0  0  0  0  0  0  0  0  0  0  0  0
  -20.5829   -4.5319  -25.6122 C   0  0  0  0  0  0  0  0  0  0  0  0
  -16.6551   -5.1084  -26.9761 C   0  0  0  0  0  0  0  0  0  0  0  0
  -20.8585   -4.6166  -28.0125 C   0  0  0  0  0  0  0  0  0  0  0  0
  -20.6746   -4.9522  -31.7502 C   0  0  0  0  0  0  0  0  0  0  0  0
  -21.1738   -4.6886  -30.4181 C   0  0  0  0  0  0  0  0  0  0  0  0
  -19.7116   -5.4604  -34.3186 C   0  0  0  0  0  0  0  0  0  0  0  0
  -22.4790   -4.2427  -30.2511 C   0  0  0  0  0  0  0  0  0  0  0  0
  -20.3636   -4.8758  -29.3019 C   0  0  0  0  0  0  0  0  0  0  0  0
  -22.1827   -4.1638  -27.8354 C   0  0  0  0  0  0  0  0  0  0  0  0
  -20.0647   -4.7965  -26.8717 C   0  0  0  0  0  0  0  0  0  0  0  0
  -21.8892   -4.0926  -25.5389 C   0  0  0  0  0  0  0  0  0  0  0  0
  -18.3261   -6.5301  -26.8287 C   0  0  0  0  0  0  0  0  0  0  0  0
  -22.4935   -3.7990  -24.2508 C   0  0  0  0  0  0  0  0  0  0  0  0
  -17.4254   -7.3233  -35.2890 C   0  0  0  0  0  0  0  0  0  0  0  0
  -18.7722   -7.5120  -37.2762 C   0  0  0  0  0  0  0  0  0  0  0  0
  -16.9946   -8.7751  -35.4774 C   0  0  0  0  0  0  0  0  0  0  0  0
  -18.3106   -8.9597  -37.4171 C   0  0  0  0  0  0  0  0  0  0  0  0
  -26.6123   -5.2978  -23.1559 C   0  0  0  0  0  0  0  0  0  0  0  0
  -26.2106   -4.7422  -21.2103 C   0  0  0  0  0  0  0  0  0  0  0  0
  -25.3020   -4.9511  -22.4317 C   0  0  0  0  0  0  0  0  0  0  0  0
  -23.3915   -4.0237  -31.4160 C   0  0  0  0  0  0  0  0  0  0  0  0
  -18.9641   -5.3597  -29.5604 C   0  0  0  0  0  0  0  0  0  0  0  0
  -19.2417   -7.6832  -26.7251 C   0  0  0  0  0  0  0  0  0  0  0  0
  -19.1931   -5.7340  -35.7008 C   0  0  0  0  0  0  0  0  0  0  0  0
  -24.6250   -3.7203  -22.9312 C   0  0  0  0  0  0  0  0  0  0  0  0
  -17.7486   -4.3414  -26.9835 N   0  0  0  0  0  0  0  0  0  0  0  0
  -22.6883   -3.9061  -26.6144 N   0  0  0  0  0  0  0  0  0  0  0  0
  -18.7484   -5.2349  -26.8928 N   0  0  0  0  0  0  0  0  0  0  0  0
  -18.7647   -7.1222  -35.8594 N   0  0  0  0  0  0  0  0  0  0  0  0
  -23.8762   -3.9901  -24.1376 N   0  0  0  0  0  0  0  0  0  0  0  0
  -21.7996   -3.3771  -23.3077 O   0  0  0  0  0  0  0  0  0  0  0  0
  -17.0044   -9.1212  -36.8629 O   0  0  0  0  0  0  0  0  0  0  0  0
  -27.4029   -4.8908  -22.0153 O   0  0  0  0  0  0  0  0  0  0  0  0
  -24.3545   -6.0313  -22.3271 O   0  0  0  0  0  0  0  0  0  0  0  0
  -19.9372   -2.9401  -32.0545 H   0  0  0  0  0  0  0  0  0  0  0  0
  -21.2959   -7.0255  -31.7554 H   0  0  0  0  0  0  0  0  0  0  0  0
  -19.0891   -3.3921  -34.3183 H   0  0  0  0  0  0  0  0  0  0  0  0
  -20.4456   -7.4698  -34.0202 H   0  0  0  0  0  0  0  0  0  0  0  0
  -16.2698   -7.3158  -26.8556 H   0  0  0  0  0  0  0  0  0  0  0  0
  -23.9963   -3.6359  -28.8530 H   0  0  0  0  0  0  0  0  0  0  0  0
  -19.9892   -4.6630  -24.7117 H   0  0  0  0  0  0  0  0  0  0  0  0
  -15.6857   -4.6355  -27.0403 H   0  0  0  0  0  0  0  0  0  0  0  0
  -17.4292   -7.0889  -34.2183 H   0  0  0  0  0  0  0  0  0  0  0  0
  -16.7000   -6.6614  -35.7798 H   0  0  0  0  0  0  0  0  0  0  0  0
  -18.1057   -6.8585  -37.8541 H   0  0  0  0  0  0  0  0  0  0  0  0
  -19.7826   -7.4196  -37.6907 H   0  0  0  0  0  0  0  0  0  0  0  0
  -15.9734   -8.9110  -35.1071 H   0  0  0  0  0  0  0  0  0  0  0  0
  -17.6433   -9.4642  -34.9231 H   0  0  0  0  0  0  0  0  0  0  0  0
  -19.0038   -9.6558  -36.9290 H   0  0  0  0  0  0  0  0  0  0  0  0
  -18.2586   -9.2332  -38.4757 H   0  0  0  0  0  0  0  0  0  0  0  0
  -26.8466   -4.7022  -24.0430 H   0  0  0  0  0  0  0  0  0  0  0  0
  -26.7627   -6.3582  -23.3814 H   0  0  0  0  0  0  0  0  0  0  0  0
  -26.1542   -5.5182  -20.4404 H   0  0  0  0  0  0  0  0  0  0  0  0
  -26.1644   -3.7572  -20.7364 H   0  0  0  0  0  0  0  0  0  0  0  0
  -23.2975   -2.9953  -31.7811 H   0  0  0  0  0  0  0  0  0  0  0  0
  -23.1551   -4.7110  -32.2364 H   0  0  0  0  0  0  0  0  0  0  0  0
  -24.4363   -4.2037  -31.1372 H   0  0  0  0  0  0  0  0  0  0  0  0
  -18.9429   -6.4523  -29.5525 H   0  0  0  0  0  0  0  0  0  0  0  0
  -18.6040   -5.0022  -30.5290 H   0  0  0  0  0  0  0  0  0  0  0  0
  -18.2776   -4.9832  -28.7968 H   0  0  0  0  0  0  0  0  0  0  0  0
  -19.4509   -7.9310  -25.6716 H   0  0  0  0  0  0  0  0  0  0  0  0
  -20.2077   -7.4905  -27.2223 H   0  0  0  0  0  0  0  0  0  0  0  0
  -18.8265   -8.5856  -27.2057 H   0  0  0  0  0  0  0  0  0  0  0  0
  -19.9662   -5.5320  -36.4502 H   0  0  0  0  0  0  0  0  0  0  0  0
  -18.3380   -5.0910  -35.9342 H   0  0  0  0  0  0  0  0  0  0  0  0
  -25.3848   -2.9539  -23.1441 H   0  0  0  0  0  0  0  0  0  0  0  0
  -23.9372   -3.3495  -22.1570 H   0  0  0  0  0  0  0  0  0  0  0  0
  -24.4053   -4.2755  -24.9551 H   0  0  0  0  0  0  0  0  0  0  0  0
  -23.5947   -5.6669  -21.8558 H   0  0  0  0  0  0  0  0  0  0  0  0
  1  3  1  0  0  0  0
  1 10  2  0  0  0  0
  2  4  2  0  0  0  0
  2 10  1  0  0  0  0
  3 12  2  0  0  0  0
  4 12  1  0  0  0  0
  5  8  1  0  0  0  0
  5 18  2  0  0  0  0
  6 13  2  0  0  0  0
  6 15  1  0  0  0  0
  7 16  1  0  0  0  0
  7 17  2  0  0  0  0
  8 32  2  0  0  0  0
  9 14  1  0  0  0  0
  9 15  1  0  0  0  0
  9 16  2  0  0  0  0
 10 11  1  0  0  0  0
 11 13  1  0  0  0  0
 11 14  2  0  0  0  0
 12 30  1  0  0  0  0
 13 27  1  0  0  0  0
 14 28  1  0  0  0  0
 15 33  2  0  0  0  0
 16 34  1  0  0  0  0
 17 19  1  0  0  0  0
 17 33  1  0  0  0  0
 18 29  1  0  0  0  0
 18 34  1  0  0  0  0
 19 36  1  0  0  0  0
 19 37  2  0  0  0  0
 20 22  1  0  0  0  0
 20 35  1  0  0  0  0
 21 23  1  0  0  0  0
 21 35  1  0  0  0  0
 22 38  1  0  0  0  0
 23 38  1  0  0  0  0
 24 26  1  0  0  0  0
 24 39  1  0  0  0  0
 25 26  1  0  0  0  0
 25 39  1  0  0  0  0
 26 31  1  0  0  0  0
 26 40  1  0  0  0  0
 30 35  1  0  0  0  0
 31 36  1  0  0  0  0
 32 34  1  0  0  0  0
  1 41  1  0  0  0  0
  2 42  1  0  0  0  0
  3 43  1  0  0  0  0
  4 44  1  0  0  0  0
  5 45  1  0  0  0  0
  6 46  1  0  0  0  0
  7 47  1  0  0  0  0
  8 48  1  0  0  0  0
 20 49  1  0  0  0  0
 20 50  1  0  0  0  0
 21 51  1  0  0  0  0
 21 52  1  0  0  0  0
 22 53  1  0  0  0  0
 22 54  1  0  0  0  0
 23 55  1  0  0  0  0
 23 56  1  0  0  0  0
 24 57  1  0  0  0  0
 24 58  1  0  0  0  0
 25 59  1  0  0  0  0
 25 60  1  0  0  0  0
 27 61  1  0  0  0  0
 27 62  1  0  0  0  0
 27 63  1  0  0  0  0
 28 64  1  0  0  0  0
 28 65  1  0  0  0  0
 28 66  1  0  0  0  0
 29 67  1  0  0  0  0
 29 68  1  0  0  0  0
 29 69  1  0  0  0  0
 30 70  1  0  0  0  0
 30 71  1  0  0  0  0
 31 72  1  0  0  0  0
 31 73  1  0  0  0  0
 36 74  1  0  0  0  0
 40 75  1  0  0  0  0
M  END
> <SMILES>
Cc1cc2nc(cc(c2c(c1-c1ccc(cc1)CN1CCOCC1)C)-n1nccc1C)C(=O)NCC1(O)COC1

> <FORMATTED_ID>
H3D-015277

> <MOLFORMULA>
C31H35N5O4

> <Exact Mass>
541.27

> <XLogP>
2.58

> <TPSA_NOPS>
101.7

> <s_m_source_file>
ligprep_h3d.sdf

> <i_m_source_file_index>
1675

> <i_lp_mmshare_version>
55123

> <i_f3d_flags>
0

> <s_epik_input>
W0NIMl0xW0NIMl1PW0NIMl1bQ0gyXU4xW0NIMl1jKFtjSF1bY0hdMilbY0hdW2NIXWMyLWMoYyhbQ0gzXSlbY0hdMyljKFtDSDNdKWMoYzM0KWMoLW41bltjSF1bY0hdYzVbQ0gzXSlbY0hdYyhuNClDKD1PKVtOSF1bQ0gyXUM2KFtPSF0pW0NIMl1PW0NIMl02

> <s_epik_cmdline>
J2VwaWtfcHl0aG9uJywgJy1waHQnLCAnMC41JywgJy1waCcsICc3LjUnLCAnLXRuJywgJzgnLCAnLW1hJywgJzUwMCcsICctaW1hZScsICc8aW5maWxlLm1hZT4nLCAnLW9tYWUnLCAnPG91dGZpbGUubWFlPic=

> <r_lp_tautomer_probability>
1

> <r_epik_Ionization_Penalty>
0.105561

> <r_epik_Ionization_Penalty_Charging>
0

> <r_epik_Ionization_Penalty_Neutral>
0.105561

> <r_epik_State_Penalty>
0.095414

> <r_epik_Charging_Adjusted_Penalty>
0.095414

> <i_epik_Tot_Q>
0

> <i_epik_Tot_abs_Q>
0

> <s_lp_Force_Field>
S-OPLS

> <r_lp_Energy>
64.3136

> <b_lp_Chiralities_Consistent>
1

> <s_lp_Variant>
ligprep_h3d.sdf:1675-1

> <ROCS_ShapeQuery>
_7L13

> <ROCS_TanimotoCombo>
0.693 

> <ROCS_ShapeTanimoto>
0.576 

> <ROCS_ColorTanimoto>
0.117 

> <ROCS_RefTversky>
0.771 

> <ROCS_RefColorTversky>
0.270 

> <ROCS_RefTverskyCombo>
1.041 

> <ROCS_FitTversky>
0.696 

> <ROCS_FitColorTversky>
0.171 

> <ROCS_FitTverskyCombo>
0.867 

> <ROCS_ColorScore>
-2.515

> <ROCS_Overlap>
1287.719

> <ROCS_Rank>
508                 

$$$$
ligprep_h3d.sdf:941_1009
  -OEChem-08212117123D

 70 73  0     0  0  0  0  0  0999 V2000
  -16.8225   -5.9328  -26.5124 C   0  0  0  0  0  0  0  0  0  0  0  0
  -23.0413   -4.2803  -28.8301 C   0  0  0  0  0  0  0  0  0  0  0  0
  -20.7082   -4.4400  -25.3948 C   0  0  0  0  0  0  0  0  0  0  0  0
  -16.6985   -4.5358  -26.6339 C   0  0  0  0  0  0  0  0  0  0  0  0
  -20.8961   -4.6125  -27.7989 C   0  0  0  0  0  0  0  0  0  0  0  0
  -21.1247   -4.7777  -30.2097 C   0  0  0  0  0  0  0  0  0  0  0  0
  -22.4809   -4.5005  -30.0908 C   0  0  0  0  0  0  0  0  0  0  0  0
  -20.3322   -4.8340  -29.0668 C   0  0  0  0  0  0  0  0  0  0  0  0
  -22.2723   -4.3307  -27.6707 C   0  0  0  0  0  0  0  0  0  0  0  0
  -20.1215   -4.6632  -26.6321 C   0  0  0  0  0  0  0  0  0  0  0  0
  -22.0617   -4.1716  -25.3695 C   0  0  0  0  0  0  0  0  0  0  0  0
  -18.1775   -6.1571  -26.4964 C   0  0  0  0  0  0  0  0  0  0  0  0
  -20.0057   -3.9328  -32.3573 C   0  0  0  0  0  0  0  0  0  0  0  0
  -20.5121   -6.2667  -32.0229 C   0  0  0  0  0  0  0  0  0  0  0  0
  -19.4833   -4.1868  -33.5616 C   0  0  0  0  0  0  0  0  0  0  0  0
  -20.5459   -5.0082  -31.5484 C   0  0  0  0  0  0  0  0  0  0  0  0
  -19.9322   -6.5669  -33.3689 C   0  0  0  0  0  0  0  0  0  0  0  0
  -22.7374   -3.9286  -24.1065 C   0  0  0  0  0  0  0  0  0  0  0  0
  -23.3776   -4.4282  -31.2858 C   0  0  0  0  0  0  0  0  0  0  0  0
  -18.8752   -5.1385  -29.2746 C   0  0  0  0  0  0  0  0  0  0  0  0
  -18.9407   -7.4160  -26.3889 C   0  0  0  0  0  0  0  0  0  0  0  0
  -26.3163   -4.6150  -23.1300 C   0  0  0  0  0  0  0  0  0  0  0  0
  -24.9632   -2.5952  -22.5287 C   0  0  0  0  0  0  0  0  0  0  0  0
  -21.7253   -7.2568  -37.0415 C   0  0  0  0  0  0  0  0  0  0  0  0
  -18.8482   -5.6454  -35.3997 C   0  0  0  0  0  0  0  0  0  0  0  0
  -19.9496   -5.8465  -36.4244 C   0  0  0  0  0  0  0  0  0  0  0  0
  -24.2956   -4.8842  -21.6728 C   0  0  0  0  0  0  0  0  0  0  0  0
  -24.9003   -4.0952  -22.8474 C   0  0  0  0  0  0  0  0  0  0  0  0
  -17.8805   -3.9163  -26.6912 N   0  0  0  0  0  0  0  0  0  0  0  0
  -22.8444   -4.1136  -26.4713 N   0  0  0  0  0  0  0  0  0  0  0  0
  -18.7600   -4.9287  -26.6054 N   0  0  0  0  0  0  0  0  0  0  0  0
  -19.4367   -5.4683  -34.0775 N   0  0  0  0  0  0  0  0  0  0  0  0
  -24.0869   -4.2940  -24.0254 N   0  0  0  0  0  0  0  0  0  0  0  0
  -19.9243   -7.7323  -33.7627 O   0  0  0  0  0  0  0  0  0  0  0  0
  -22.1322   -3.3987  -23.1568 O   0  0  0  0  0  0  0  0  0  0  0  0
  -24.2058   -6.2737  -21.9672 O   0  0  0  0  0  0  0  0  0  0  0  0
  -20.6835   -7.0216  -36.1043 O   0  0  0  0  0  0  0  0  0  0  0  0
  -16.0377   -6.6720  -26.4462 H   0  0  0  0  0  0  0  0  0  0  0  0
  -24.1061   -4.0640  -28.7520 H   0  0  0  0  0  0  0  0  0  0  0  0
  -20.1304   -4.4735  -24.4755 H   0  0  0  0  0  0  0  0  0  0  0  0
  -15.7961   -3.9435  -26.6832 H   0  0  0  0  0  0  0  0  0  0  0  0
  -20.0324   -2.9197  -31.9687 H   0  0  0  0  0  0  0  0  0  0  0  0
  -20.9004   -7.1123  -31.4610 H   0  0  0  0  0  0  0  0  0  0  0  0
  -19.0753   -3.3941  -34.1789 H   0  0  0  0  0  0  0  0  0  0  0  0
  -23.4062   -3.4048  -31.6751 H   0  0  0  0  0  0  0  0  0  0  0  0
  -23.0291   -5.0972  -32.0811 H   0  0  0  0  0  0  0  0  0  0  0  0
  -24.3985   -4.7363  -31.0315 H   0  0  0  0  0  0  0  0  0  0  0  0
  -18.7136   -6.2188  -29.2381 H   0  0  0  0  0  0  0  0  0  0  0  0
  -18.5346   -4.7588  -30.2420 H   0  0  0  0  0  0  0  0  0  0  0  0
  -18.2660   -4.6597  -28.5027 H   0  0  0  0  0  0  0  0  0  0  0  0
  -19.1488   -7.6656  -25.3356 H   0  0  0  0  0  0  0  0  0  0  0  0
  -19.9076   -7.3601  -26.9174 H   0  0  0  0  0  0  0  0  0  0  0  0
  -18.3988   -8.2677  -26.8345 H   0  0  0  0  0  0  0  0  0  0  0  0
  -26.3087   -5.6859  -23.3620 H   0  0  0  0  0  0  0  0  0  0  0  0
  -26.9739   -4.4615  -22.2664 H   0  0  0  0  0  0  0  0  0  0  0  0
  -26.7690   -4.0896  -23.9790 H   0  0  0  0  0  0  0  0  0  0  0  0
  -23.9691   -2.1839  -22.3203 H   0  0  0  0  0  0  0  0  0  0  0  0
  -25.5986   -2.4013  -21.6576 H   0  0  0  0  0  0  0  0  0  0  0  0
  -25.3708   -2.0303  -23.3754 H   0  0  0  0  0  0  0  0  0  0  0  0
  -22.2668   -8.1649  -36.7653 H   0  0  0  0  0  0  0  0  0  0  0  0
  -21.2991   -7.3640  -38.0421 H   0  0  0  0  0  0  0  0  0  0  0  0
  -22.4127   -6.4076  -37.0294 H   0  0  0  0  0  0  0  0  0  0  0  0
  -18.1771   -6.5094  -35.3635 H   0  0  0  0  0  0  0  0  0  0  0  0
  -18.2663   -4.7496  -35.6369 H   0  0  0  0  0  0  0  0  0  0  0  0
  -19.5152   -5.9803  -37.4200 H   0  0  0  0  0  0  0  0  0  0  0  0
  -20.6388   -4.9961  -36.4468 H   0  0  0  0  0  0  0  0  0  0  0  0
  -23.2824   -4.5329  -21.4491 H   0  0  0  0  0  0  0  0  0  0  0  0
  -24.8966   -4.7706  -20.7633 H   0  0  0  0  0  0  0  0  0  0  0  0
  -24.5500   -4.6643  -24.8489 H   0  0  0  0  0  0  0  0  0  0  0  0
  -23.8186   -6.6992  -21.1858 H   0  0  0  0  0  0  0  0  0  0  0  0
  1  4  1  0  0  0  0
  1 12  2  0  0  0  0
  2  7  1  0  0  0  0
  2  9  2  0  0  0  0
  3 10  2  0  0  0  0
  3 11  1  0  0  0  0
  4 29  2  0  0  0  0
  5  8  2  0  0  0  0
  5  9  1  0  0  0  0
  5 10  1  0  0  0  0
  6  7  2  0  0  0  0
  6  8  1  0  0  0  0
  6 16  1  0  0  0  0
  7 19  1  0  0  0  0
  8 20  1  0  0  0  0
  9 30  1  0  0  0  0
 10 31  1  0  0  0  0
 11 18  1  0  0  0  0
 11 30  2  0  0  0  0
 12 21  1  0  0  0  0
 12 31  1  0  0  0  0
 13 15  2  0  0  0  0
 13 16  1  0  0  0  0
 14 16  2  0  0  0  0
 14 17  1  0  0  0  0
 15 32  1  0  0  0  0
 17 32  1  0  0  0  0
 17 34  2  0  0  0  0
 18 33  1  0  0  0  0
 18 35  2  0  0  0  0
 22 28  1  0  0  0  0
 23 28  1  0  0  0  0
 24 37  1  0  0  0  0
 25 26  1  0  0  0  0
 25 32  1  0  0  0  0
 26 37  1  0  0  0  0
 27 28  1  0  0  0  0
 27 36  1  0  0  0  0
 28 33  1  0  0  0  0
 29 31  1  0  0  0  0
  1 38  1  0  0  0  0
  2 39  1  0  0  0  0
  3 40  1  0  0  0  0
  4 41  1  0  0  0  0
 13 42  1  0  0  0  0
 14 43  1  0  0  0  0
 15 44  1  0  0  0  0
 19 45  1  0  0  0  0
 19 46  1  0  0  0  0
 19 47  1  0  0  0  0
 20 48  1  0  0  0  0
 20 49  1  0  0  0  0
 20 50  1  0  0  0  0
 21 51  1  0  0  0  0
 21 52  1  0  0  0  0
 21 53  1  0  0  0  0
 22 54  1  0  0  0  0
 22 55  1  0  0  0  0
 22 56  1  0  0  0  0
 23 57  1  0  0  0  0
 23 58  1  0  0  0  0
 23 59  1  0  0  0  0
 24 60  1  0  0  0  0
 24 61  1  0  0  0  0
 24 62  1  0  0  0  0
 25 63  1  0  0  0  0
 25 64  1  0  0  0  0
 26 65  1  0  0  0  0
 26 66  1  0  0  0  0
 27 67  1  0  0  0  0
 27 68  1  0  0  0  0
 33 69  1  0  0  0  0
 36 70  1  0  0  0  0
M  END
> <SMILES>
COCCN1C=CC(=CC1=O)c1c(cc2nc(cc(c2c1C)-n1nccc1C)C(=O)NC(C)(C)CO)C

> <FORMATTED_ID>
H3D-005926

> <MOLFORMULA>
C28H33N5O4

> <Exact Mass>
503.25

> <XLogP>
2.85

> <TPSA_NOPS>
109.6

> <s_m_source_file>
ligprep_h3d.sdf

> <i_m_source_file_index>
941

> <i_lp_mmshare_version>
55123

> <i_f3d_flags>
0

> <s_epik_input>
W0NIM11PW0NIMl1bQ0gyXW4xW2NIXVtjSF1jKFtjSF1jMT1PKS1jKGMoW2NIXTIpW0NIM10pYyhbQ0gzXSljKGMyMyljKC1uNG5bY0hdW2NIXWM0W0NIM10pW2NIXWMobjMpQyg9TylbTkhdQyhbQ0gzXSkoW0NIM10pW0NIMl1bT0hd

> <s_epik_cmdline>
J2VwaWtfcHl0aG9uJywgJy1waHQnLCAnMC41JywgJy1waCcsICc3LjUnLCAnLXRuJywgJzgnLCAnLW1hJywgJzUwMCcsICctaW1hZScsICc8aW5maWxlLm1hZT4nLCAnLW9tYWUnLCAnPG91dGZpbGUubWFlPic=

> <r_lp_tautomer_probability>
1

> <r_epik_Ionization_Penalty>
1.37773e-05

> <r_epik_Ionization_Penalty_Charging>
2.32377e-07

> <r_epik_Ionization_Penalty_Neutral>
1.35449e-05

> <r_epik_State_Penalty>
-0

> <r_epik_Charging_Adjusted_Penalty>
2.32377e-07

> <i_epik_Tot_Q>
0

> <i_epik_Tot_abs_Q>
0

> <s_lp_Force_Field>
S-OPLS

> <r_lp_Energy>
68.1563

> <b_lp_Chiralities_Consistent>
1

> <s_lp_Variant>
ligprep_h3d.sdf:941-1

> <ROCS_ShapeQuery>
_7L13

> <ROCS_TanimotoCombo>
0.716 

> <ROCS_ShapeTanimoto>
0.615 

> <ROCS_ColorTanimoto>
0.101 

> <ROCS_RefTversky>
0.771 

> <ROCS_RefColorTversky>
0.220 

> <ROCS_RefTverskyCombo>
0.991 

> <ROCS_FitTversky>
0.753 

> <ROCS_FitColorTversky>
0.158 

> <ROCS_FitTverskyCombo>
0.911 

> <ROCS_ColorScore>
-2.027

> <ROCS_Overlap>
1281.466

> <ROCS_Rank>
509                 

$$$$
ligprep_h3d.sdf:3194_969
  -OEChem-08212117123D

 57 61  0     0  0  0  0  0  0999 V2000
  -23.3255   -2.6348  -31.1029 C   0  0  0  0  0  0  0  0  0  0  0  0
  -23.3235   -4.1956  -23.3392 C   0  0  0  0  0  0  0  0  0  0  0  0
  -23.8899   -5.1038  -25.5052 C   0  0  0  0  0  0  0  0  0  0  0  0
  -22.6654   -2.8387  -29.8911 C   0  0  0  0  0  0  0  0  0  0  0  0
  -23.1728   -3.5514  -32.1432 C   0  0  0  0  0  0  0  0  0  0  0  0
  -24.6729   -4.1970  -22.9858 C   0  0  0  0  0  0  0  0  0  0  0  0
  -25.2392   -5.1052  -25.1518 C   0  0  0  0  0  0  0  0  0  0  0  0
  -21.6999   -4.8759  -30.7600 C   0  0  0  0  0  0  0  0  0  0  0  0
  -20.4115   -4.7915  -24.1880 C   0  0  0  0  0  0  0  0  0  0  0  0
  -22.9320   -4.6490  -24.5989 C   0  0  0  0  0  0  0  0  0  0  0  0
  -21.8526   -3.9592  -29.7197 C   0  0  0  0  0  0  0  0  0  0  0  0
  -22.3600   -4.6720  -31.9717 C   0  0  0  0  0  0  0  0  0  0  0  0
  -25.6307   -4.6518  -23.8920 C   0  0  0  0  0  0  0  0  0  0  0  0
  -21.5364   -4.6479  -24.9642 C   0  0  0  0  0  0  0  0  0  0  0  0
  -19.6930   -4.5452  -26.1851 C   0  0  0  0  0  0  0  0  0  0  0  0
  -18.9925   -4.4113  -27.4036 C   0  0  0  0  0  0  0  0  0  0  0  0
  -19.6711   -4.2284  -28.5428 C   0  0  0  0  0  0  0  0  0  0  0  0
  -21.1650   -4.1712  -28.4557 C   0  0  0  0  0  0  0  0  0  0  0  0
  -22.1999   -5.6361  -33.0673 C   0  0  0  0  0  0  0  0  0  0  0  0
  -18.7888   -5.7782  -35.5210 C   0  0  0  0  0  0  0  0  0  0  0  0
  -19.8528   -6.8761  -35.5414 C   0  0  0  0  0  0  0  0  0  0  0  0
  -19.3258   -4.5028  -34.8711 C   0  0  0  0  0  0  0  0  0  0  0  0
  -20.4243   -7.1137  -34.1462 C   0  0  0  0  0  0  0  0  0  0  0  0
  -19.9166   -4.7882  -33.4925 C   0  0  0  0  0  0  0  0  0  0  0  0
  -27.9126   -3.0575  -23.9640 C   0  0  0  0  0  0  0  0  0  0  0  0
  -19.2730   -4.7276  -24.9496 N   0  0  0  0  0  0  0  0  0  0  0  0
  -21.8416   -4.3075  -27.3498 N   0  0  0  0  0  0  0  0  0  0  0  0
  -21.0721   -4.4890  -26.2433 N   0  0  0  0  0  0  0  0  0  0  0  0
  -20.9153   -5.8548  -33.5699 N   0  0  0  0  0  0  0  0  0  0  0  0
  -23.2263   -6.1914  -33.4562 O   0  0  0  0  0  0  0  0  0  0  0  0
  -27.9933   -5.6620  -24.2556 O   0  0  0  0  0  0  0  0  0  0  0  0
  -27.4274   -4.6985  -21.9979 O   0  0  0  0  0  0  0  0  0  0  0  0
  -27.3194   -4.6536  -23.4499 S   0  0  0  0  0  0  0  0  0  0  0  0
  -23.9582   -1.7619  -31.2365 H   0  0  0  0  0  0  0  0  0  0  0  0
  -22.5888   -3.8381  -22.6217 H   0  0  0  0  0  0  0  0  0  0  0  0
  -23.6005   -5.4604  -26.4909 H   0  0  0  0  0  0  0  0  0  0  0  0
  -22.7917   -2.1180  -29.0872 H   0  0  0  0  0  0  0  0  0  0  0  0
  -23.6921   -3.3826  -33.0832 H   0  0  0  0  0  0  0  0  0  0  0  0
  -24.9670   -3.8418  -22.0018 H   0  0  0  0  0  0  0  0  0  0  0  0
  -25.9773   -5.4616  -25.8654 H   0  0  0  0  0  0  0  0  0  0  0  0
  -21.0659   -5.7495  -30.6263 H   0  0  0  0  0  0  0  0  0  0  0  0
  -20.3588   -4.9386  -23.1185 H   0  0  0  0  0  0  0  0  0  0  0  0
  -17.9092   -4.4561  -27.4047 H   0  0  0  0  0  0  0  0  0  0  0  0
  -19.1774   -4.1192  -29.5002 H   0  0  0  0  0  0  0  0  0  0  0  0
  -17.9124   -6.1302  -34.9631 H   0  0  0  0  0  0  0  0  0  0  0  0
  -18.4555   -5.5640  -36.5424 H   0  0  0  0  0  0  0  0  0  0  0  0
  -20.6614   -6.5944  -36.2270 H   0  0  0  0  0  0  0  0  0  0  0  0
  -19.4151   -7.8046  -35.9247 H   0  0  0  0  0  0  0  0  0  0  0  0
  -18.5178   -3.7680  -34.7822 H   0  0  0  0  0  0  0  0  0  0  0  0
  -20.0954   -4.0585  -35.5143 H   0  0  0  0  0  0  0  0  0  0  0  0
  -21.2128   -7.8686  -34.1978 H   0  0  0  0  0  0  0  0  0  0  0  0
  -19.6482   -7.4985  -33.4738 H   0  0  0  0  0  0  0  0  0  0  0  0
  -19.1344   -5.1195  -32.7994 H   0  0  0  0  0  0  0  0  0  0  0  0
  -20.3570   -3.8748  -33.0801 H   0  0  0  0  0  0  0  0  0  0  0  0
  -28.9729   -2.9879  -23.7160 H   0  0  0  0  0  0  0  0  0  0  0  0
  -27.3447   -2.2918  -23.4334 H   0  0  0  0  0  0  0  0  0  0  0  0
  -27.7649   -2.9660  -25.0411 H   0  0  0  0  0  0  0  0  0  0  0  0
  1  4  1  0  0  0  0
  1  5  2  0  0  0  0
  2  6  1  0  0  0  0
  2 10  2  0  0  0  0
  3  7  2  0  0  0  0
  3 10  1  0  0  0  0
  4 11  2  0  0  0  0
  5 12  1  0  0  0  0
  6 13  2  0  0  0  0
  7 13  1  0  0  0  0
  8 11  1  0  0  0  0
  8 12  2  0  0  0  0
  9 14  2  0  0  0  0
  9 26  1  0  0  0  0
 10 14  1  0  0  0  0
 11 18  1  0  0  0  0
 12 19  1  0  0  0  0
 13 33  1  0  0  0  0
 14 28  1  0  0  0  0
 15 16  1  0  0  0  0
 15 26  2  0  0  0  0
 15 28  1  0  0  0  0
 16 17  2  0  0  0  0
 17 18  1  0  0  0  0
 18 27  2  0  0  0  0
 19 29  1  0  0  0  0
 19 30  2  0  0  0  0
 20 21  1  0  0  0  0
 20 22  1  0  0  0  0
 21 23  1  0  0  0  0
 22 24  1  0  0  0  0
 23 29  1  0  0  0  0
 24 29  1  0  0  0  0
 25 33  1  0  0  0  0
 27 28  1  0  0  0  0
 31 33  2  0  0  0  0
 32 33  2  0  0  0  0
  1 34  1  0  0  0  0
  2 35  1  0  0  0  0
  3 36  1  0  0  0  0
  4 37  1  0  0  0  0
  5 38  1  0  0  0  0
  6 39  1  0  0  0  0
  7 40  1  0  0  0  0
  8 41  1  0  0  0  0
  9 42  1  0  0  0  0
 16 43  1  0  0  0  0
 17 44  1  0  0  0  0
 20 45  1  0  0  0  0
 20 46  1  0  0  0  0
 21 47  1  0  0  0  0
 21 48  1  0  0  0  0
 22 49  1  0  0  0  0
 22 50  1  0  0  0  0
 23 51  1  0  0  0  0
 23 52  1  0  0  0  0
 24 53  1  0  0  0  0
 24 54  1  0  0  0  0
 25 55  1  0  0  0  0
 25 56  1  0  0  0  0
 25 57  1  0  0  0  0
M  END
> <SMILES>
CS(=O)(=O)c1ccc(cc1)-c1cnc2ccc(nn12)-c1cccc(c1)C(=O)N1CCCCC1

> <FORMATTED_ID>
H3D-000373

> <MOLFORMULA>
C25H24N4O3S

> <Exact Mass>
460.16

> <XLogP>
4.52

> <TPSA_NOPS>
93

> <s_m_source_file>
ligprep_h3d.sdf

> <i_m_source_file_index>
3194

> <i_lp_mmshare_version>
55123

> <i_f3d_flags>
0

> <s_epik_input>
W0NIM11TKD1PKSg9TyljMVtjSF1bY0hdYyhbY0hdW2NIXTEpLWMoW2NIXW4yKW4oYzIzKW5jKFtjSF1bY0hdMyktYzRbY0hdW2NIXVtjSF1jKFtjSF00KUMoPU8pTjVbQ0gyXVtDSDJdW0NIMl1bQ0gyXVtDSDJdNQ==

> <s_epik_cmdline>
J2VwaWtfcHl0aG9uJywgJy1waHQnLCAnMC41JywgJy1waCcsICc3LjUnLCAnLXRuJywgJzgnLCAnLW1hJywgJzUwMCcsICctaW1hZScsICc8aW5maWxlLm1hZT4nLCAnLW9tYWUnLCAnPG91dGZpbGUubWFlPic=

> <r_lp_tautomer_probability>
1

> <r_epik_Ionization_Penalty>
0.000168846

> <r_epik_Ionization_Penalty_Charging>
0

> <r_epik_Ionization_Penalty_Neutral>
0.000168846

> <r_epik_State_Penalty>
-0

> <r_epik_Charging_Adjusted_Penalty>
0

> <i_epik_Tot_Q>
0

> <i_epik_Tot_abs_Q>
0

> <s_lp_Force_Field>
S-OPLS

> <r_lp_Energy>
39.4343

> <b_lp_Chiralities_Consistent>
1

> <s_lp_Variant>
ligprep_h3d.sdf:3194-1

> <ROCS_ShapeQuery>
_7L13

> <ROCS_TanimotoCombo>
0.840 

> <ROCS_ShapeTanimoto>
0.671 

> <ROCS_ColorTanimoto>
0.169 

> <ROCS_RefTversky>
0.771 

> <ROCS_RefColorTversky>
0.304 

> <ROCS_RefTverskyCombo>
1.075 

> <ROCS_FitTversky>
0.838 

> <ROCS_FitColorTversky>
0.276 

> <ROCS_FitTverskyCombo>
1.114 

> <ROCS_ColorScore>
-2.752

> <ROCS_Overlap>
1274.026

> <ROCS_Rank>
510                 

$$$$
ligprep_h3d.sdf:736_39
  -OEChem-08212117123D

 57 62  0     1  0  0  0  0  0999 V2000
  -20.9809   -5.1403  -29.5068 C   0  0  0  0  0  0  0  0  0  0  0  0
  -21.7519   -4.3767  -30.3858 C   0  0  0  0  0  0  0  0  0  0  0  0
  -21.0939   -4.8984  -28.1165 C   0  0  0  0  0  0  0  0  0  0  0  0
  -21.9871   -3.9404  -27.5811 C   0  0  0  0  0  0  0  0  0  0  0  0
  -22.5948   -3.4223  -29.8600 C   0  0  0  0  0  0  0  0  0  0  0  0
  -22.7421   -3.1694  -28.4960 C   0  0  0  0  0  0  0  0  0  0  0  0
  -21.9472   -4.2677  -31.7752 C   0  0  0  0  0  0  0  0  0  0  0  0
  -18.9019   -3.8020  -26.2435 C   0  0  0  0  0  0  0  0  0  0  0  0
  -19.2207   -6.0142  -25.0163 C   0  0  0  0  0  0  0  0  0  0  0  0
  -17.0475   -5.1355  -25.8389 C   0  0  0  0  0  0  0  0  0  0  0  0
  -20.2378   -5.7242  -27.1940 C   0  0  0  0  0  0  0  0  0  0  0  0
  -21.3541   -6.5240  -32.6958 C   0  0  0  0  0  0  0  0  0  0  0  0
  -20.3857   -4.5556  -33.7156 C   0  0  0  0  0  0  0  0  0  0  0  0
  -23.0608   -2.8086  -25.6448 C   0  0  0  0  0  0  0  0  0  0  0  0
  -21.1978   -4.4612  -25.2379 C   0  0  2  0  0  0  0  0  0  0  0  0
  -20.2295   -6.9425  -33.6403 C   0  0  2  0  0  0  0  0  0  0  0  0
  -20.1213   -5.7684  -34.5972 C   0  0  2  0  0  0  0  0  0  0  0  0
  -23.4262   -3.1297  -24.1926 C   0  0  1  0  0  0  0  0  0  0  0  0
  -21.0459   -3.5246  -24.0034 C   0  0  2  0  0  0  0  0  0  0  0  0
  -19.8703   -4.9579  -25.8993 C   0  0  2  0  0  0  0  0  0  0  0  0
  -24.4005   -4.3004  -24.0771 C   0  0  0  0  0  0  0  0  0  0  0  0
  -20.0806   -3.9866  -22.9191 C   0  0  0  0  0  0  0  0  0  0  0  0
  -22.8369   -3.3213  -32.0893 N   0  0  0  0  0  0  0  0  0  0  0  0
  -17.6376   -4.1406  -26.5027 N   0  5  0  0  0  0  0  0  0  0  0  0
  -17.8415   -5.9894  -25.0755 N   0  0  0  0  0  0  0  0  0  0  0  0
  -22.0953   -3.7659  -26.1992 N   0  0  3  0  0  0  0  0  0  0  0  0
  -21.2710   -5.0661  -32.6732 N   0  0  0  0  0  0  0  0  0  0  0  0
  -19.3202   -2.6525  -26.3801 O   0  0  0  0  0  0  0  0  0  0  0  0
  -19.8480   -6.8553  -24.3764 O   0  0  0  0  0  0  0  0  0  0  0  0
  -15.8322   -5.3441  -25.8865 O   0  0  0  0  0  0  0  0  0  0  0  0
  -23.2441   -2.7857  -30.8730 O   0  0  0  0  0  0  0  0  0  0  0  0
  -22.3109   -3.3837  -23.3434 O   0  0  0  0  0  0  0  0  0  0  0  0
  -20.5624   -8.1222  -34.3481 O   0  0  0  0  0  0  0  0  0  0  0  0
  -23.5153   -2.1408  -28.1279 F   0  0  0  0  0  0  0  0  0  0  0  0
  -18.8714   -5.7082  -35.1153 F   0  0  0  0  0  0  0  0  0  0  0  0
  -20.3001   -5.8987  -29.8826 H   0  0  0  0  0  0  0  0  0  0  0  0
  -20.7927   -6.6427  -26.9586 H   0  0  0  0  0  0  0  0  0  0  0  0
  -19.3256   -6.0383  -27.7182 H   0  0  0  0  0  0  0  0  0  0  0  0
  -22.3365   -6.8449  -33.0646 H   0  0  0  0  0  0  0  0  0  0  0  0
  -21.2072   -6.9573  -31.6992 H   0  0  0  0  0  0  0  0  0  0  0  0
  -19.4556   -4.1751  -33.2764 H   0  0  0  0  0  0  0  0  0  0  0  0
  -20.8523   -3.7477  -34.2909 H   0  0  0  0  0  0  0  0  0  0  0  0
  -23.9724   -2.8580  -26.2753 H   0  0  0  0  0  0  0  0  0  0  0  0
  -22.7569   -1.7510  -25.6856 H   0  0  0  0  0  0  0  0  0  0  0  0
  -21.7654   -5.3452  -24.9055 H   0  0  0  0  0  0  0  0  0  0  0  0
  -19.2880   -7.1011  -33.1026 H   0  0  0  0  0  0  0  0  0  0  0  0
  -20.8359   -5.8414  -35.4245 H   0  0  0  0  0  0  0  0  0  0  0  0
  -23.9804   -2.2288  -23.7541 H   0  0  0  0  0  0  0  0  0  0  0  0
  -20.7232   -2.5139  -24.3119 H   0  0  0  0  0  0  0  0  0  0  0  0
  -23.9445   -5.2062  -24.4771 H   0  0  0  0  0  0  0  0  0  0  0  0
  -25.3102   -4.0854  -24.6380 H   0  0  0  0  0  0  0  0  0  0  0  0
  -24.6608   -4.4675  -23.0318 H   0  0  0  0  0  0  0  0  0  0  0  0
  -20.3545   -4.9845  -22.5765 H   0  0  0  0  0  0  0  0  0  0  0  0
  -20.1145   -3.3005  -22.0727 H   0  0  0  0  0  0  0  0  0  0  0  0
  -19.0641   -4.0140  -23.3119 H   0  0  0  0  0  0  0  0  0  0  0  0
  -17.3519   -6.6677  -24.4996 H   0  0  0  0  0  0  0  0  0  0  0  0
  -20.7130   -8.8195  -33.6871 H   0  0  0  0  0  0  0  0  0  0  0  0
  1  2  2  0  0  0  0
  1  3  1  0  0  0  0
  2  5  1  0  0  0  0
  2  7  1  0  0  0  0
  3  4  2  0  0  0  0
  3 11  1  0  0  0  0
  4  6  1  0  0  0  0
  4 26  1  0  0  0  0
  5  6  2  0  0  0  0
  5 31  1  0  0  0  0
  6 34  1  0  0  0  0
  7 23  2  0  0  0  0
  7 27  1  0  0  0  0
  8 20  1  0  0  0  0
  8 24  1  0  0  0  0
  8 28  2  0  0  0  0
  9 20  1  0  0  0  0
  9 25  1  0  0  0  0
  9 29  2  0  0  0  0
 10 24  1  0  0  0  0
 10 25  1  0  0  0  0
 10 30  2  0  0  0  0
 11 20  1  0  0  0  0
 12 16  1  0  0  0  0
 12 27  1  0  0  0  0
 13 17  1  0  0  0  0
 13 27  1  0  0  0  0
 14 18  1  0  0  0  0
 14 26  1  0  0  0  0
 15 19  1  0  0  0  0
 15 20  1  0  0  0  0
 15 26  1  0  0  0  0
 16 17  1  0  0  0  0
 16 33  1  0  0  0  0
 17 35  1  0  0  0  0
 18 21  1  0  0  0  0
 18 32  1  0  0  0  0
 19 22  1  0  0  0  0
 19 32  1  0  0  0  0
 23 31  1  0  0  0  0
  1 36  1  0  0  0  0
 11 37  1  0  0  0  0
 11 38  1  0  0  0  0
 12 39  1  0  0  0  0
 12 40  1  0  0  0  0
 13 41  1  0  0  0  0
 13 42  1  0  0  0  0
 14 43  1  0  0  0  0
 14 44  1  0  0  0  0
 15 45  1  0  0  0  0
 16 46  1  0  0  0  0
 17 47  1  0  0  0  0
 18 48  1  0  0  0  0
 19 49  1  0  0  0  0
 21 50  1  0  0  0  0
 21 51  1  0  0  0  0
 21 52  1  0  0  0  0
 22 53  1  0  0  0  0
 22 54  1  0  0  0  0
 22 55  1  0  0  0  0
 25 56  1  0  0  0  0
 33 57  1  0  0  0  0
M  CHG  1  24  -1
M  END
> <SMILES>
C[C@@H]1CN2[C@H]([C@H](C)O1)C1(Cc3cc4c(noc4c(c32)F)N2C[C@@H](O)[C@H](F)C2)C(=O)NC(=O)NC1=O

> <FORMATTED_ID>
H3D-004991

> <MOLFORMULA>
C22H23F2N5O6

> <Exact Mass>
491.16

> <XLogP>
-0.49

> <TPSA_NOPS>
137.5

> <s_m_source_file>
ligprep_h3d.sdf

> <i_m_source_file_index>
736

> <i_lp_mmshare_version>
55123

> <i_f3d_flags>
0

> <s_epik_input>
Tz1DMVtOSF1DKD1PKVtOSF1DKD1PKUMxMltDQEBIXTNOKFtDSDJdW0NAQEhdKFtDSDNdKU9bQ0BIXTNbQ0gzXSljNGMoW0NIMl0yKVtjSF1jNWMoYzRGKW9uYzVONltDSDJdW0NAQEhdKFtPSF0pW0NASF0oRilbQ0gyXTY=

> <s_epik_cmdline>
J2VwaWtfcHl0aG9uJywgJy1waHQnLCAnMC41JywgJy1waCcsICc3LjUnLCAnLXRuJywgJzgnLCAnLW1hJywgJzUwMCcsICctaW1hZScsICc8aW5maWxlLm1hZT4nLCAnLW9tYWUnLCAnPG91dGZpbGUubWFlPic=

> <r_lp_tautomer_probability>
1

> <r_epik_Ionization_Penalty>
0.455398

> <r_epik_Ionization_Penalty_Charging>
0.455373

> <r_epik_Ionization_Penalty_Neutral>
2.49521e-05

> <r_epik_State_Penalty>
0.458483

> <r_epik_Charging_Adjusted_Penalty>
0.913857

> <i_epik_Tot_Q>
-1

> <i_epik_Tot_abs_Q>
1

> <s_lp_Force_Field>
S-OPLS

> <r_lp_Energy>
55.6646

> <b_lp_Chiralities_Consistent>
1

> <s_lp_Variant>
ligprep_h3d.sdf:736-2

> <ROCS_ShapeQuery>
_7L13

> <ROCS_TanimotoCombo>
0.750 

> <ROCS_ShapeTanimoto>
0.625 

> <ROCS_ColorTanimoto>
0.124 

> <ROCS_RefTversky>
0.771 

> <ROCS_RefColorTversky>
0.296 

> <ROCS_RefTverskyCombo>
1.067 

> <ROCS_FitTversky>
0.768 

> <ROCS_FitColorTversky>
0.177 

> <ROCS_FitTverskyCombo>
0.945 

> <ROCS_ColorScore>
-2.772

> <ROCS_Overlap>
1279.897

> <ROCS_Rank>
511                 

$$$$
ligprep_h3d.sdf:5434_1434
  -OEChem-08212117123D

 66 71  0     1  0  0  0  0  0999 V2000
  -20.3598   -6.8586  -33.9868 C   0  0  0  0  0  0  0  0  0  0  0  0
  -19.3686   -4.6701  -33.7319 C   0  0  0  0  0  0  0  0  0  0  0  0
  -19.3735   -7.1975  -34.9131 C   0  0  0  0  0  0  0  0  0  0  0  0
  -18.3823   -5.0090  -34.6581 C   0  0  0  0  0  0  0  0  0  0  0  0
  -23.2401   -4.1461  -28.6643 C   0  0  0  0  0  0  0  0  0  0  0  0
  -20.4999   -4.5907  -29.1361 C   0  0  0  0  0  0  0  0  0  0  0  0
  -14.9185   -5.8768  -26.0413 C   0  0  0  0  0  0  0  0  0  0  0  0
  -14.4625   -4.5983  -25.8542 C   0  0  0  0  0  0  0  0  0  0  0  0
  -22.3677   -4.4107  -27.6151 C   0  0  0  0  0  0  0  0  0  0  0  0
  -20.3574   -5.5949  -33.3962 C   0  0  0  0  0  0  0  0  0  0  0  0
  -21.0041   -4.6335  -27.8410 C   0  0  0  0  0  0  0  0  0  0  0  0
  -22.7342   -4.1120  -29.9631 C   0  0  0  0  0  0  0  0  0  0  0  0
  -21.3719   -4.3323  -30.1974 C   0  0  0  0  0  0  0  0  0  0  0  0
  -18.3847   -6.2727  -35.2487 C   0  0  0  0  0  0  0  0  0  0  0  0
  -16.6531   -4.4977  -26.1293 C   0  0  0  0  0  0  0  0  0  0  0  0
  -18.0786   -4.0981  -26.2757 C   0  0  0  0  0  0  0  0  0  0  0  0
  -18.4795   -6.4755  -26.5663 C   0  0  0  0  0  0  0  0  0  0  0  0
  -17.1822   -6.8098  -26.4298 C   0  0  0  0  0  0  0  0  0  0  0  0
  -18.9715   -5.0885  -26.4919 C   0  0  0  0  0  0  0  0  0  0  0  0
  -24.1930   -5.3915  -24.3294 C   0  0  0  0  0  0  0  0  0  0  0  0
  -23.8221   -5.4225  -25.8097 C   0  0  0  0  0  0  0  0  0  0  0  0
  -21.3046   -4.9845  -25.5783 C   0  0  0  0  0  0  0  0  0  0  0  0
  -24.5172   -3.9804  -23.8642 C   0  0  0  0  0  0  0  0  0  0  0  0
  -22.9890   -3.0401  -25.6247 C   0  0  0  0  0  0  0  0  0  0  0  0
  -22.6679   -4.4566  -26.1352 C   0  0  1  0  0  0  0  0  0  0  0  0
  -23.5762   -1.6875  -23.6124 C   0  0  0  0  0  0  0  0  0  0  0  0
  -23.7573   -2.4888  -31.3682 C   0  0  0  0  0  0  0  0  0  0  0  0
  -21.4177   -5.2300  -32.3992 C   0  0  0  0  0  0  0  0  0  0  0  0
  -16.2844   -5.7898  -26.2104 N   0  0  0  0  0  0  0  0  0  0  0  0
  -15.5565   -3.7666  -25.9132 N   0  3  0  0  0  0  0  0  0  0  0  0
  -20.3018   -4.8776  -26.6454 N   0  0  0  0  0  0  0  0  0  0  0  0
  -23.3481   -3.0726  -24.1546 N   0  3  1  0  0  0  0  0  0  0  0  0
  -23.5789   -3.8552  -31.0014 O   0  0  0  0  0  0  0  0  0  0  0  0
  -20.8790   -4.2942  -31.4685 O   0  0  0  0  0  0  0  0  0  0  0  0
  -17.4359   -6.5989  -36.1362 F   0  0  0  0  0  0  0  0  0  0  0  0
  -21.1266   -7.5856  -33.7322 H   0  0  0  0  0  0  0  0  0  0  0  0
  -19.3586   -3.6832  -33.2766 H   0  0  0  0  0  0  0  0  0  0  0  0
  -19.3749   -8.1814  -35.3724 H   0  0  0  0  0  0  0  0  0  0  0  0
  -17.6125   -4.2891  -34.9200 H   0  0  0  0  0  0  0  0  0  0  0  0
  -24.2934   -3.9605  -28.4794 H   0  0  0  0  0  0  0  0  0  0  0  0
  -19.4467   -4.7591  -29.3379 H   0  0  0  0  0  0  0  0  0  0  0  0
  -14.4550   -6.8446  -26.0777 H   0  0  0  0  0  0  0  0  0  0  0  0
  -13.5057   -4.1456  -25.6845 H   0  0  0  0  0  0  0  0  0  0  0  0
  -18.3525   -3.0526  -26.2069 H   0  0  0  0  0  0  0  0  0  0  0  0
  -19.2114   -7.2592  -26.7405 H   0  0  0  0  0  0  0  0  0  0  0  0
  -16.8107   -7.8249  -26.4829 H   0  0  0  0  0  0  0  0  0  0  0  0
  -25.0620   -6.0375  -24.1597 H   0  0  0  0  0  0  0  0  0  0  0  0
  -23.3745   -5.8032  -23.7268 H   0  0  0  0  0  0  0  0  0  0  0  0
  -23.5672   -6.4487  -26.1036 H   0  0  0  0  0  0  0  0  0  0  0  0
  -24.7139   -5.1547  -26.3915 H   0  0  0  0  0  0  0  0  0  0  0  0
  -20.9748   -4.4306  -24.6924 H   0  0  0  0  0  0  0  0  0  0  0  0
  -21.3840   -6.0400  -25.2865 H   0  0  0  0  0  0  0  0  0  0  0  0
  -25.3924   -3.5721  -24.3815 H   0  0  0  0  0  0  0  0  0  0  0  0
  -24.6894   -3.9609  -22.7830 H   0  0  0  0  0  0  0  0  0  0  0  0
  -22.1283   -2.3688  -25.7322 H   0  0  0  0  0  0  0  0  0  0  0  0
  -23.8436   -2.5980  -26.1522 H   0  0  0  0  0  0  0  0  0  0  0  0
  -24.4313   -1.2595  -24.1388 H   0  0  0  0  0  0  0  0  0  0  0  0
  -23.7775   -1.7761  -22.5432 H   0  0  0  0  0  0  0  0  0  0  0  0
  -22.6715   -1.1042  -23.7945 H   0  0  0  0  0  0  0  0  0  0  0  0
  -24.4537   -2.4241  -32.2077 H   0  0  0  0  0  0  0  0  0  0  0  0
  -22.7929   -2.0565  -31.6467 H   0  0  0  0  0  0  0  0  0  0  0  0
  -24.1665   -1.9423  -30.5152 H   0  0  0  0  0  0  0  0  0  0  0  0
  -22.2847   -4.7811  -32.8958 H   0  0  0  0  0  0  0  0  0  0  0  0
  -21.7624   -6.1175  -31.8575 H   0  0  0  0  0  0  0  0  0  0  0  0
  -15.5338   -2.7559  -25.8093 H   0  0  0  0  0  0  0  0  0  0  0  0
  -22.5398   -3.4479  -23.6414 H   0  0  0  0  0  0  0  0  0  0  0  0
  1  3  1  0  0  0  0
  1 10  2  0  0  0  0
  2  4  2  0  0  0  0
  2 10  1  0  0  0  0
  3 14  2  0  0  0  0
  4 14  1  0  0  0  0
  5  9  1  0  0  0  0
  5 12  2  0  0  0  0
  6 11  1  0  0  0  0
  6 13  2  0  0  0  0
  7  8  2  0  0  0  0
  7 29  1  0  0  0  0
  8 30  1  0  0  0  0
  9 11  2  0  0  0  0
  9 25  1  0  0  0  0
 10 28  1  0  0  0  0
 11 31  1  0  0  0  0
 12 13  1  0  0  0  0
 12 33  1  0  0  0  0
 13 34  1  0  0  0  0
 14 35  1  0  0  0  0
 15 16  1  0  0  0  0
 15 29  1  0  0  0  0
 15 30  2  0  0  0  0
 16 19  2  0  0  0  0
 17 18  2  0  0  0  0
 17 19  1  0  0  0  0
 18 29  1  0  0  0  0
 19 31  1  0  0  0  0
 20 21  1  0  0  0  0
 20 23  1  0  0  0  0
 21 25  1  0  0  0  0
 22 25  1  0  0  0  0
 22 31  1  0  0  0  0
 23 32  1  0  0  0  0
 24 25  1  0  0  0  0
 24 32  1  0  0  0  0
 26 32  1  0  0  0  0
 27 33  1  0  0  0  0
 28 34  1  0  0  0  0
  1 36  1  0  0  0  0
  2 37  1  0  0  0  0
  3 38  1  0  0  0  0
  4 39  1  0  0  0  0
  5 40  1  0  0  0  0
  6 41  1  0  0  0  0
  7 42  1  0  0  0  0
  8 43  1  0  0  0  0
 16 44  1  0  0  0  0
 17 45  1  0  0  0  0
 18 46  1  0  0  0  0
 20 47  1  0  0  0  0
 20 48  1  0  0  0  0
 21 49  1  0  0  0  0
 21 50  1  0  0  0  0
 22 51  1  0  0  0  0
 22 52  1  0  0  0  0
 23 53  1  0  0  0  0
 23 54  1  0  0  0  0
 24 55  1  0  0  0  0
 24 56  1  0  0  0  0
 26 57  1  0  0  0  0
 26 58  1  0  0  0  0
 26 59  1  0  0  0  0
 27 60  1  0  0  0  0
 27 61  1  0  0  0  0
 27 62  1  0  0  0  0
 28 63  1  0  0  0  0
 28 64  1  0  0  0  0
 30 65  1  0  0  0  0
 32 66  1  0  0  0  0
M  CHG  2  30   1  32   1
M  END
> <SMILES>
COc1cc2c(cc1OCc1ccc(cc1)F)N(CC12CCCN(C)C1)c1ccn2ccnc2c1

> <FORMATTED_ID>
H3D-015745

> <MOLFORMULA>
C28H29FN4O2

> <Exact Mass>
472.23

> <XLogP>
6.17

> <TPSA_NOPS>
42.2

> <s_m_source_file>
ligprep_h3d.sdf

> <i_m_source_file_index>
5434

> <i_lp_mmshare_version>
55123

> <i_f3d_flags>
0

> <s_epik_input>
W2NIXTFbY0hdYyhGKVtjSF1bY0hdYzFbQ0gyXU9jKGMoW2NIXTIpT1tDSDNdKVtjSF1jKGMyW0NAQF0zNFtDSDJdW0NIMl1bQ0gyXU4oW0NIM10pW0NIMl00KU4oW0NIMl0zKWMoW2NIXVtjSF01KVtjSF1jKG41NiluW2NIXVtjSF02

> <s_epik_cmdline>
J2VwaWtfcHl0aG9uJywgJy1waHQnLCAnMC41JywgJy1waCcsICc3LjUnLCAnLXRuJywgJzgnLCAnLW1hJywgJzUwMCcsICctaW1hZScsICc8aW5maWxlLm1hZT4nLCAnLW9tYWUnLCAnPG91dGZpbGUubWFlPic=

> <r_lp_tautomer_probability>
1

> <r_epik_Ionization_Penalty>
0.405491

> <r_epik_Ionization_Penalty_Charging>
0.00845698

> <r_epik_Ionization_Penalty_Neutral>
0.397034

> <r_epik_State_Penalty>
0.39613

> <r_epik_Charging_Adjusted_Penalty>
0.404587

> <i_epik_Tot_Q>
2

> <i_epik_Tot_abs_Q>
2

> <s_lp_Force_Field>
S-OPLS

> <r_lp_Energy>
69.6236

> <b_lp_Chiralities_Consistent>
1

> <s_lp_Variant>
ligprep_h3d.sdf:5434-1

> <ROCS_ShapeQuery>
_7L13

> <ROCS_TanimotoCombo>
0.688 

> <ROCS_ShapeTanimoto>
0.635 

> <ROCS_ColorTanimoto>
0.054 

> <ROCS_RefTversky>
0.771 

> <ROCS_RefColorTversky>
0.117 

> <ROCS_RefTverskyCombo>
0.888 

> <ROCS_FitTversky>
0.782 

> <ROCS_FitColorTversky>
0.090 

> <ROCS_FitTverskyCombo>
0.872 

> <ROCS_ColorScore>
-1.073

> <ROCS_Overlap>
1278.625

> <ROCS_Rank>
512                 

$$$$
ligprep_h3d.sdf:2148_533
  -OEChem-08212117123D

 65 68  0     0  0  0  0  0  0999 V2000
  -26.2784   -4.7421  -22.6036 C   0  0  0  0  0  0  0  0  0  0  0  0
  -26.9604   -5.4884  -29.2042 C   0  0  0  0  0  0  0  0  0  0  0  0
  -27.4316   -5.3733  -27.8954 C   0  0  0  0  0  0  0  0  0  0  0  0
  -25.6049   -5.3443  -29.4808 C   0  0  0  0  0  0  0  0  0  0  0  0
  -20.0264   -3.5770  -27.2131 C   0  0  0  0  0  0  0  0  0  0  0  0
  -20.3988   -5.3396  -25.6032 C   0  0  0  0  0  0  0  0  0  0  0  0
  -18.6505   -3.7895  -27.1275 C   0  0  0  0  0  0  0  0  0  0  0  0
  -19.0229   -5.5522  -25.5176 C   0  0  0  0  0  0  0  0  0  0  0  0
  -26.5161   -5.1002  -26.8627 C   0  0  0  0  0  0  0  0  0  0  0  0
  -25.1611   -4.9285  -27.1518 C   0  0  0  0  0  0  0  0  0  0  0  0
  -20.9006   -4.3520  -26.4509 C   0  0  0  0  0  0  0  0  0  0  0  0
  -24.6820   -5.0674  -28.4645 C   0  0  0  0  0  0  0  0  0  0  0  0
  -18.1487   -4.7771  -26.2798 C   0  0  0  0  0  0  0  0  0  0  0  0
  -25.5844   -4.7546  -24.9666 C   0  0  0  0  0  0  0  0  0  0  0  0
  -22.9458   -4.1911  -24.2607 C   0  0  0  0  0  0  0  0  0  0  0  0
  -25.2502   -4.6033  -23.5821 C   0  0  0  0  0  0  0  0  0  0  0  0
  -23.9703   -4.3417  -23.2322 C   0  0  0  0  0  0  0  0  0  0  0  0
  -23.2318   -4.3298  -25.5719 C   0  0  0  0  0  0  0  0  0  0  0  0
  -22.8025   -4.5988  -30.0745 C   0  0  0  0  0  0  0  0  0  0  0  0
  -20.5347   -5.1890  -32.3750 C   0  0  0  0  0  0  0  0  0  0  0  0
  -18.6421   -5.0068  -34.5045 C   0  0  0  0  0  0  0  0  0  0  0  0
  -19.3518   -7.3446  -35.0877 C   0  0  0  0  0  0  0  0  0  0  0  0
  -21.0218   -5.4709  -35.1800 C   0  0  0  0  0  0  0  0  0  0  0  0
  -21.2877   -4.6680  -30.0593 C   0  0  0  0  0  0  0  0  0  0  0  0
  -23.4677   -4.1669  -21.8236 C   0  0  0  0  0  0  0  0  0  0  0  0
  -19.7864   -6.0187  -34.4669 C   0  0  0  0  0  0  0  0  0  0  0  0
  -16.3346   -6.0017  -25.3197 C   0  0  0  0  0  0  0  0  0  0  0  0
  -27.1149   -4.8553  -21.8078 N   0  0  0  0  0  0  0  0  0  0  0  0
  -26.7545   -4.9851  -25.5231 N   0  0  0  0  0  0  0  0  0  0  0  0
  -24.5642   -4.6480  -25.9226 N   0  0  0  0  0  0  0  0  0  0  0  0
  -22.2815   -4.1387  -26.5367 N   0  0  0  0  0  0  0  0  0  0  0  0
  -23.3433   -4.9967  -28.8383 N   0  0  0  0  0  0  0  0  0  0  0  0
  -20.8275   -5.5736  -31.0812 N   0  0  0  0  0  0  0  0  0  0  0  0
  -23.4301   -4.2261  -31.0607 O   0  0  0  0  0  0  0  0  0  0  0  0
  -20.6248   -4.0491  -32.8188 O   0  0  0  0  0  0  0  0  0  0  0  0
  -16.8061   -4.9845  -26.1963 O   0  0  0  0  0  0  0  0  0  0  0  0
  -20.1249   -6.2732  -33.0989 O   0  0  0  0  0  0  0  0  0  0  0  0
  -22.1482   -3.9029  -21.8202 F   0  0  0  0  0  0  0  0  0  0  0  0
  -24.1017   -3.1478  -21.2150 F   0  0  0  0  0  0  0  0  0  0  0  0
  -23.6750   -5.2824  -21.0998 F   0  0  0  0  0  0  0  0  0  0  0  0
  -16.8288   -7.2092  -25.6665 F   0  0  0  0  0  0  0  0  0  0  0  0
  -16.7552   -5.7246  -24.0646 F   0  0  0  0  0  0  0  0  0  0  0  0
  -14.9855   -6.0445  -25.3060 F   0  0  0  0  0  0  0  0  0  0  0  0
  -27.6570   -5.7044  -30.0096 H   0  0  0  0  0  0  0  0  0  0  0  0
  -28.4879   -5.5037  -27.6805 H   0  0  0  0  0  0  0  0  0  0  0  0
  -25.2674   -5.4589  -30.5093 H   0  0  0  0  0  0  0  0  0  0  0  0
  -20.4066   -2.8048  -27.8769 H   0  0  0  0  0  0  0  0  0  0  0  0
  -21.0710   -5.9493  -25.0048 H   0  0  0  0  0  0  0  0  0  0  0  0
  -17.9745   -3.1826  -27.7237 H   0  0  0  0  0  0  0  0  0  0  0  0
  -18.6380   -6.3230  -24.8555 H   0  0  0  0  0  0  0  0  0  0  0  0
  -21.9411   -3.9327  -23.9363 H   0  0  0  0  0  0  0  0  0  0  0  0
  -18.9500   -4.0536  -34.0598 H   0  0  0  0  0  0  0  0  0  0  0  0
  -17.7618   -5.3732  -33.9664 H   0  0  0  0  0  0  0  0  0  0  0  0
  -18.3493   -4.7857  -35.5373 H   0  0  0  0  0  0  0  0  0  0  0  0
  -20.1698   -8.0737  -35.0628 H   0  0  0  0  0  0  0  0  0  0  0  0
  -18.5253   -7.7885  -34.5210 H   0  0  0  0  0  0  0  0  0  0  0  0
  -19.0313   -7.2184  -36.1268 H   0  0  0  0  0  0  0  0  0  0  0  0
  -21.8427   -6.1965  -35.1532 H   0  0  0  0  0  0  0  0  0  0  0  0
  -21.3700   -4.5382  -34.7245 H   0  0  0  0  0  0  0  0  0  0  0  0
  -20.8094   -5.2832  -36.2388 H   0  0  0  0  0  0  0  0  0  0  0  0
  -20.9432   -5.0158  -29.0803 H   0  0  0  0  0  0  0  0  0  0  0  0
  -20.8838   -3.6670  -30.2406 H   0  0  0  0  0  0  0  0  0  0  0  0
  -22.6370   -3.8003  -27.4191 H   0  0  0  0  0  0  0  0  0  0  0  0
  -22.6540   -5.2681  -28.1254 H   0  0  0  0  0  0  0  0  0  0  0  0
  -20.7116   -6.5538  -30.8353 H   0  0  0  0  0  0  0  0  0  0  0  0
  1 16  1  0  0  0  0
  1 28  3  0  0  0  0
  2  3  1  0  0  0  0
  2  4  2  0  0  0  0
  3  9  2  0  0  0  0
  4 12  1  0  0  0  0
  5  7  1  0  0  0  0
  5 11  2  0  0  0  0
  6  8  2  0  0  0  0
  6 11  1  0  0  0  0
  7 13  2  0  0  0  0
  8 13  1  0  0  0  0
  9 10  1  0  0  0  0
  9 29  1  0  0  0  0
 10 12  2  0  0  0  0
 10 30  1  0  0  0  0
 11 31  1  0  0  0  0
 12 32  1  0  0  0  0
 13 36  1  0  0  0  0
 14 16  1  0  0  0  0
 14 29  2  0  0  0  0
 14 30  1  0  0  0  0
 15 17  1  0  0  0  0
 15 18  2  0  0  0  0
 16 17  2  0  0  0  0
 17 25  1  0  0  0  0
 18 30  1  0  0  0  0
 18 31  1  0  0  0  0
 19 24  1  0  0  0  0
 19 32  1  0  0  0  0
 19 34  2  0  0  0  0
 20 33  1  0  0  0  0
 20 35  2  0  0  0  0
 20 37  1  0  0  0  0
 21 26  1  0  0  0  0
 22 26  1  0  0  0  0
 23 26  1  0  0  0  0
 24 33  1  0  0  0  0
 25 38  1  0  0  0  0
 25 39  1  0  0  0  0
 25 40  1  0  0  0  0
 26 37  1  0  0  0  0
 27 36  1  0  0  0  0
 27 41  1  0  0  0  0
 27 42  1  0  0  0  0
 27 43  1  0  0  0  0
  2 44  1  0  0  0  0
  3 45  1  0  0  0  0
  4 46  1  0  0  0  0
  5 47  1  0  0  0  0
  6 48  1  0  0  0  0
  7 49  1  0  0  0  0
  8 50  1  0  0  0  0
 15 51  1  0  0  0  0
 21 52  1  0  0  0  0
 21 53  1  0  0  0  0
 21 54  1  0  0  0  0
 22 55  1  0  0  0  0
 22 56  1  0  0  0  0
 22 57  1  0  0  0  0
 23 58  1  0  0  0  0
 23 59  1  0  0  0  0
 23 60  1  0  0  0  0
 24 61  1  0  0  0  0
 24 62  1  0  0  0  0
 31 63  1  0  0  0  0
 32 64  1  0  0  0  0
 33 65  1  0  0  0  0
M  END
> <SMILES>
CC(C)(C)OC(=O)NCC(=O)Nc1cccc2nc3c(c(cc(n3c12)Nc1ccc(cc1)OC(F)(F)F)C(F)(F)F)C#N

> <FORMATTED_ID>
H3D-004704

> <MOLFORMULA>
C27H22F6N6O4

> <Exact Mass>
608.16

> <XLogP>
7.2

> <TPSA_NOPS>
129.8

> <s_m_source_file>
ligprep_h3d.sdf

> <i_m_source_file_index>
2148

> <i_lp_mmshare_version>
55123

> <i_f3d_flags>
0

> <s_epik_input>
W0NIM11DKFtDSDNdKShbQ0gzXSlPQyg9TylbTkhdW0NIMl1DKD1PKVtOSF1jKFtjSF1bY0hdW2NIXTEpYyhjMTIpbjNjKG4yKWMoQyNOKWMoQyhGKShGKUYpW2NIXWMzW05IXWM0W2NIXVtjSF1jKFtjSF1bY0hdNClPQyhGKShGKUY=

> <s_epik_cmdline>
J2VwaWtfcHl0aG9uJywgJy1waHQnLCAnMC41JywgJy1waCcsICc3LjUnLCAnLXRuJywgJzgnLCAnLW1hJywgJzUwMCcsICctaW1hZScsICc8aW5maWxlLm1hZT4nLCAnLW9tYWUnLCAnPG91dGZpbGUubWFlPic=

> <r_lp_tautomer_probability>
1

> <r_epik_Ionization_Penalty>
0.000119678

> <r_epik_Ionization_Penalty_Charging>
0

> <r_epik_Ionization_Penalty_Neutral>
0.000119678

> <r_epik_State_Penalty>
-0

> <r_epik_Charging_Adjusted_Penalty>
0

> <i_epik_Tot_Q>
0

> <i_epik_Tot_abs_Q>
0

> <s_epik_Chemistry_Notes>
This compound has an ester and may undergo hydrolysis at high or low pH.

> <s_lp_Force_Field>
S-OPLS

> <r_lp_Energy>
58.6131

> <b_lp_Chiralities_Consistent>
1

> <s_lp_Variant>
ligprep_h3d.sdf:2148-1

> <ROCS_ShapeQuery>
_7L13

> <ROCS_TanimotoCombo>
0.609 

> <ROCS_ShapeTanimoto>
0.543 

> <ROCS_ColorTanimoto>
0.065 

> <ROCS_RefTversky>
0.771 

> <ROCS_RefColorTversky>
0.147 

> <ROCS_RefTverskyCombo>
0.917 

> <ROCS_FitTversky>
0.648 

> <ROCS_FitColorTversky>
0.105 

> <ROCS_FitTverskyCombo>
0.753 

> <ROCS_ColorScore>
-1.350

> <ROCS_Overlap>
1293.204

> <ROCS_Rank>
513                 

$$$$
ligprep_h3d.sdf:4466_1454
  -OEChem-08212117123D

 59 63  0     0  0  0  0  0  0999 V2000
  -20.5327   -4.7699  -25.4476 C   0  0  0  0  0  0  0  0  0  0  0  0
  -22.3771   -3.6142  -26.4708 C   0  0  0  0  0  0  0  0  0  0  0  0
  -21.5294   -4.5849  -30.6161 C   0  0  0  0  0  0  0  0  0  0  0  0
  -19.9443   -4.8284  -26.7007 C   0  0  0  0  0  0  0  0  0  0  0  0
  -23.0991   -2.9642  -32.3580 C   0  0  0  0  0  0  0  0  0  0  0  0
  -21.7723   -4.1495  -25.3390 C   0  0  0  0  0  0  0  0  0  0  0  0
  -22.3462   -4.0272  -32.8462 C   0  0  0  0  0  0  0  0  0  0  0  0
  -21.5863   -4.8073  -31.9822 C   0  0  0  0  0  0  0  0  0  0  0  0
  -21.7061   -3.7243  -27.6780 C   0  0  0  0  0  0  0  0  0  0  0  0
  -22.2948   -3.5178  -30.1829 C   0  0  0  0  0  0  0  0  0  0  0  0
  -21.3956   -5.5008  -34.0724 C   0  0  0  0  0  0  0  0  0  0  0  0
  -22.4393   -4.0613  -24.0342 C   0  0  0  0  0  0  0  0  0  0  0  0
  -19.3902   -6.2700  -35.4134 C   0  0  0  0  0  0  0  0  0  0  0  0
  -21.3686   -7.8253  -35.0759 C   0  0  0  0  0  0  0  0  0  0  0  0
  -18.9197   -7.1285  -36.5860 C   0  0  0  0  0  0  0  0  0  0  0  0
  -20.8927   -8.6799  -36.2492 C   0  0  0  0  0  0  0  0  0  0  0  0
  -25.8283   -4.8401  -25.1151 C   0  0  0  0  0  0  0  0  0  0  0  0
  -25.7730   -4.0862  -22.7020 C   0  0  0  0  0  0  0  0  0  0  0  0
  -24.4139   -5.3880  -24.9480 C   0  0  0  0  0  0  0  0  0  0  0  0
  -24.3564   -4.6424  -22.5874 C   0  0  0  0  0  0  0  0  0  0  0  0
  -20.9159   -6.3614  -35.2271 C   0  0  0  0  0  0  0  0  0  0  0  0
  -19.3908   -8.5663  -36.4480 C   0  0  0  0  0  0  0  0  0  0  0  0
  -26.5629   -4.8054  -23.7840 C   0  0  0  0  0  0  0  0  0  0  0  0
  -20.5010   -4.3198  -27.8227 N   0  0  0  0  0  0  0  0  0  0  0  0
  -22.2140   -4.4753  -34.1426 N   0  0  0  0  0  0  0  0  0  0  0  0
  -20.9897   -5.7406  -32.7900 N   0  0  0  0  0  0  0  0  0  0  0  0
  -23.0174   -2.7829  -31.0362 N   0  3  0  0  0  0  0  0  0  0  0  0
  -23.6946   -4.6587  -23.8935 N   0  0  0  0  0  0  0  0  0  0  0  0
  -22.3346   -3.1734  -28.8224 N   0  0  0  0  0  0  0  0  0  0  0  0
  -21.8332   -3.4501  -23.1554 O   0  0  0  0  0  0  0  0  0  0  0  0
  -19.0271   -9.2681  -37.5503 F   0  0  0  0  0  0  0  0  0  0  0  0
  -18.7556   -9.1457  -35.3962 F   0  0  0  0  0  0  0  0  0  0  0  0
  -26.8146   -6.0781  -23.3804 F   0  0  0  0  0  0  0  0  0  0  0  0
  -27.7682   -4.2062  -23.9435 F   0  0  0  0  0  0  0  0  0  0  0  0
  -20.0337   -5.1981  -24.5848 H   0  0  0  0  0  0  0  0  0  0  0  0
  -23.3449   -3.1253  -26.4061 H   0  0  0  0  0  0  0  0  0  0  0  0
  -20.9345   -5.1981  -29.9516 H   0  0  0  0  0  0  0  0  0  0  0  0
  -18.9779   -5.3019  -26.8389 H   0  0  0  0  0  0  0  0  0  0  0  0
  -23.7251   -2.2900  -32.9239 H   0  0  0  0  0  0  0  0  0  0  0  0
  -18.8805   -6.5966  -34.4984 H   0  0  0  0  0  0  0  0  0  0  0  0
  -19.0931   -5.2288  -35.5835 H   0  0  0  0  0  0  0  0  0  0  0  0
  -22.4615   -7.8767  -35.0092 H   0  0  0  0  0  0  0  0  0  0  0  0
  -20.9767   -8.2443  -34.1408 H   0  0  0  0  0  0  0  0  0  0  0  0
  -19.2887   -6.7086  -37.5293 H   0  0  0  0  0  0  0  0  0  0  0  0
  -17.8252   -7.1043  -36.6381 H   0  0  0  0  0  0  0  0  0  0  0  0
  -21.1610   -9.7271  -36.0686 H   0  0  0  0  0  0  0  0  0  0  0  0
  -21.4100   -8.3767  -37.1673 H   0  0  0  0  0  0  0  0  0  0  0  0
  -25.7804   -3.8282  -25.5331 H   0  0  0  0  0  0  0  0  0  0  0  0
  -26.3873   -5.4536  -25.8319 H   0  0  0  0  0  0  0  0  0  0  0  0
  -26.2920   -4.1810  -21.7403 H   0  0  0  0  0  0  0  0  0  0  0  0
  -25.7266   -3.0158  -22.9321 H   0  0  0  0  0  0  0  0  0  0  0  0
  -24.4589   -6.4602  -24.7405 H   0  0  0  0  0  0  0  0  0  0  0  0
  -23.8424   -5.2607  -25.8755 H   0  0  0  0  0  0  0  0  0  0  0  0
  -23.7502   -4.0154  -21.9221 H   0  0  0  0  0  0  0  0  0  0  0  0
  -24.3848   -5.6478  -22.1540 H   0  0  0  0  0  0  0  0  0  0  0  0
  -21.3952   -5.9515  -36.1471 H   0  0  0  0  0  0  0  0  0  0  0  0
  -20.3622   -6.4741  -32.4879 H   0  0  0  0  0  0  0  0  0  0  0  0
  -23.5553   -2.0127  -30.6382 H   0  0  0  0  0  0  0  0  0  0  0  0
  -22.9244   -2.3775  -28.6106 H   0  0  0  0  0  0  0  0  0  0  0  0
  1  4  1  0  0  0  0
  1  6  2  0  0  0  0
  2  6  1  0  0  0  0
  2  9  2  0  0  0  0
  3  8  2  0  0  0  0
  3 10  1  0  0  0  0
  4 24  2  0  0  0  0
  5  7  2  0  0  0  0
  5 27  1  0  0  0  0
  6 12  1  0  0  0  0
  7  8  1  0  0  0  0
  7 25  1  0  0  0  0
  8 26  1  0  0  0  0
  9 24  1  0  0  0  0
  9 29  1  0  0  0  0
 10 27  2  0  0  0  0
 10 29  1  0  0  0  0
 11 21  1  0  0  0  0
 11 25  2  0  0  0  0
 11 26  1  0  0  0  0
 12 28  1  0  0  0  0
 12 30  2  0  0  0  0
 13 15  1  0  0  0  0
 13 21  1  0  0  0  0
 14 16  1  0  0  0  0
 14 21  1  0  0  0  0
 15 22  1  0  0  0  0
 16 22  1  0  0  0  0
 17 19  1  0  0  0  0
 17 23  1  0  0  0  0
 18 20  1  0  0  0  0
 18 23  1  0  0  0  0
 19 28  1  0  0  0  0
 20 28  1  0  0  0  0
 22 31  1  0  0  0  0
 22 32  1  0  0  0  0
 23 33  1  0  0  0  0
 23 34  1  0  0  0  0
  1 35  1  0  0  0  0
  2 36  1  0  0  0  0
  3 37  1  0  0  0  0
  4 38  1  0  0  0  0
  5 39  1  0  0  0  0
 13 40  1  0  0  0  0
 13 41  1  0  0  0  0
 14 42  1  0  0  0  0
 14 43  1  0  0  0  0
 15 44  1  0  0  0  0
 15 45  1  0  0  0  0
 16 46  1  0  0  0  0
 16 47  1  0  0  0  0
 17 48  1  0  0  0  0
 17 49  1  0  0  0  0
 18 50  1  0  0  0  0
 18 51  1  0  0  0  0
 19 52  1  0  0  0  0
 19 53  1  0  0  0  0
 20 54  1  0  0  0  0
 20 55  1  0  0  0  0
 21 56  1  0  0  0  0
 26 57  1  0  0  0  0
 27 58  1  0  0  0  0
 29 59  1  0  0  0  0
M  CHG  1  27   1
M  END
> <SMILES>
FC1(F)CCC(CC1)c1nc2cnc(cc2[nH]1)Nc1cc(ccn1)C(=O)N1CCC(F)(F)CC1

> <FORMATTED_ID>
H3D-004196

> <MOLFORMULA>
C23H24F4N6O

> <Exact Mass>
476.19

> <XLogP>
5.24

> <TPSA_NOPS>
86.8

> <s_m_source_file>
ligprep_h3d.sdf

> <i_m_source_file_index>
4466

> <i_lp_mmshare_version>
55123

> <i_f3d_flags>
0

> <s_epik_input>
RkMxKEYpW0NIMl1bQ0gyXVtDSF0oW0NIMl1bQ0gyXTEpYyhuMilbbkhdYyhjMjMpW2NIXWMobltjSF0zKVtOSF1jNFtjSF1jKFtjSF1bY0hdbjQpQyg9TylOKFtDSDJdW0NIMl01KVtDSDJdW0NIMl1DNShGKUY=

> <s_epik_cmdline>
J2VwaWtfcHl0aG9uJywgJy1waHQnLCAnMC41JywgJy1waCcsICc3LjUnLCAnLXRuJywgJzgnLCAnLW1hJywgJzUwMCcsICctaW1hZScsICc8aW5maWxlLm1hZT4nLCAnLW9tYWUnLCAnPG91dGZpbGUubWFlPic=

> <r_lp_tautomer_probability>
1

> <r_epik_Ionization_Penalty>
0.65742

> <r_epik_Ionization_Penalty_Charging>
1.25197e-06

> <r_epik_Ionization_Penalty_Neutral>
0.657418

> <r_epik_State_Penalty>
0.545856

> <r_epik_Charging_Adjusted_Penalty>
0.545857

> <i_epik_Tot_Q>
1

> <i_epik_Tot_abs_Q>
1

> <s_lp_Force_Field>
S-OPLS

> <r_lp_Energy>
43.1349

> <b_lp_Chiralities_Consistent>
1

> <s_lp_Variant>
ligprep_h3d.sdf:4466-2

> <ROCS_ShapeQuery>
_7L13

> <ROCS_TanimotoCombo>
0.837 

> <ROCS_ShapeTanimoto>
0.649 

> <ROCS_ColorTanimoto>
0.188 

> <ROCS_RefTversky>
0.771 

> <ROCS_RefColorTversky>
0.364 

> <ROCS_RefTverskyCombo>
1.134 

> <ROCS_FitTversky>
0.804 

> <ROCS_FitColorTversky>
0.280 

> <ROCS_FitTverskyCombo>
1.084 

> <ROCS_ColorScore>
-3.329

> <ROCS_Overlap>
1276.655

> <ROCS_Rank>
514                 

$$$$
ligprep_h3d.sdf:2563_345
  -OEChem-08212117123D

 45 49  0     0  0  0  0  0  0999 V2000
  -21.5135   -3.5992  -24.3859 C   0  0  0  0  0  0  0  0  0  0  0  0
  -22.1173   -3.3860  -29.7980 C   0  0  0  0  0  0  0  0  0  0  0  0
  -22.4077   -3.3915  -23.3300 C   0  0  0  0  0  0  0  0  0  0  0  0
  -23.2127   -2.7120  -30.3378 C   0  0  0  0  0  0  0  0  0  0  0  0
  -23.1345   -4.9582  -25.6068 C   0  0  0  0  0  0  0  0  0  0  0  0
  -22.9732   -3.9657  -32.3892 C   0  0  0  0  0  0  0  0  0  0  0  0
  -16.9521   -4.7653  -27.1413 C   0  0  0  0  0  0  0  0  0  0  0  0
  -19.5119   -4.5830  -26.4588 C   0  0  0  0  0  0  0  0  0  0  0  0
  -21.8673   -4.3665  -25.5025 C   0  0  0  0  0  0  0  0  0  0  0  0
  -21.4497   -4.3498  -30.5538 C   0  0  0  0  0  0  0  0  0  0  0  0
  -21.8777   -4.6397  -31.8494 C   0  0  0  0  0  0  0  0  0  0  0  0
  -24.0425   -4.7599  -24.5569 C   0  0  0  0  0  0  0  0  0  0  0  0
  -23.6523   -3.9932  -23.4690 C   0  0  0  0  0  0  0  0  0  0  0  0
  -23.6407   -3.0018  -31.6334 C   0  0  0  0  0  0  0  0  0  0  0  0
  -20.9150   -4.5521  -26.5629 C   0  0  0  0  0  0  0  0  0  0  0  0
  -19.0787   -4.7845  -27.7576 C   0  0  0  0  0  0  0  0  0  0  0  0
  -18.5340   -4.4729  -25.4760 C   0  0  0  0  0  0  0  0  0  0  0  0
  -25.6608   -4.6942  -23.2059 C   0  0  0  0  0  0  0  0  0  0  0  0
  -20.2700   -5.0628  -29.9502 C   0  0  0  0  0  0  0  0  0  0  0  0
  -21.1779   -5.6661  -32.6784 C   0  0  0  0  0  0  0  0  0  0  0  0
  -17.8081   -4.8867  -28.1788 N   0  0  0  0  0  0  0  0  0  0  0  0
  -17.2300   -4.5670  -25.8306 N   0  0  0  0  0  0  0  0  0  0  0  0
  -25.3306   -5.2013  -24.3733 N   0  0  0  0  0  0  0  0  0  0  0  0
  -21.3435   -4.7194  -27.8189 N   0  0  0  0  0  0  0  0  0  0  0  0
  -20.2045   -4.8579  -28.5226 N   0  0  0  0  0  0  0  0  0  0  0  0
  -18.8742   -4.2658  -24.1269 N   0  0  0  0  0  0  0  0  0  0  0  0
  -26.8269   -4.8120  -22.5304 N   0  0  0  0  0  0  0  0  0  0  0  0
  -24.6987   -3.9492  -22.5929 O   0  0  0  0  0  0  0  0  0  0  0  0
  -24.6929   -2.3552  -32.1516 F   0  0  0  0  0  0  0  0  0  0  0  0
  -21.7209   -5.8267  -33.9205 F   0  0  0  0  0  0  0  0  0  0  0  0
  -19.8605   -5.3834  -32.8976 F   0  0  0  0  0  0  0  0  0  0  0  0
  -21.1982   -6.9038  -32.1052 F   0  0  0  0  0  0  0  0  0  0  0  0
  -20.5250   -3.1476  -24.3216 H   0  0  0  0  0  0  0  0  0  0  0  0
  -21.7904   -3.1523  -28.7880 H   0  0  0  0  0  0  0  0  0  0  0  0
  -22.1438   -2.8002  -22.4621 H   0  0  0  0  0  0  0  0  0  0  0  0
  -23.7309   -1.9608  -29.7494 H   0  0  0  0  0  0  0  0  0  0  0  0
  -23.4132   -5.5553  -26.4701 H   0  0  0  0  0  0  0  0  0  0  0  0
  -23.3142   -4.1834  -33.3978 H   0  0  0  0  0  0  0  0  0  0  0  0
  -15.8987   -4.8339  -27.3912 H   0  0  0  0  0  0  0  0  0  0  0  0
  -20.3200   -6.1419  -30.1400 H   0  0  0  0  0  0  0  0  0  0  0  0
  -19.3282   -4.7130  -30.3901 H   0  0  0  0  0  0  0  0  0  0  0  0
  -19.8367   -4.1490  -23.8749 H   0  0  0  0  0  0  0  0  0  0  0  0
  -18.1461   -4.1436  -23.4497 H   0  0  0  0  0  0  0  0  0  0  0  0
  -27.6363   -5.3124  -22.9226 H   0  0  0  0  0  0  0  0  0  0  0  0
  -26.9906   -4.3282  -21.6367 H   0  0  0  0  0  0  0  0  0  0  0  0
  1  3  1  0  0  0  0
  1  9  2  0  0  0  0
  2  4  1  0  0  0  0
  2 10  2  0  0  0  0
  3 13  2  0  0  0  0
  4 14  2  0  0  0  0
  5  9  1  0  0  0  0
  5 12  2  0  0  0  0
  6 11  2  0  0  0  0
  6 14  1  0  0  0  0
  7 21  1  0  0  0  0
  7 22  2  0  0  0  0
  8 15  1  0  0  0  0
  8 16  1  0  0  0  0
  8 17  2  0  0  0  0
  9 15  1  0  0  0  0
 10 11  1  0  0  0  0
 10 19  1  0  0  0  0
 11 20  1  0  0  0  0
 12 13  1  0  0  0  0
 12 23  1  0  0  0  0
 13 28  1  0  0  0  0
 14 29  1  0  0  0  0
 15 24  2  0  0  0  0
 16 21  2  0  0  0  0
 16 25  1  0  0  0  0
 17 22  1  0  0  0  0
 17 26  1  0  0  0  0
 18 23  2  0  0  0  0
 18 27  1  0  0  0  0
 18 28  1  0  0  0  0
 19 25  1  0  0  0  0
 20 30  1  0  0  0  0
 20 31  1  0  0  0  0
 20 32  1  0  0  0  0
 24 25  1  0  0  0  0
  1 33  1  0  0  0  0
  2 34  1  0  0  0  0
  3 35  1  0  0  0  0
  4 36  1  0  0  0  0
  5 37  1  0  0  0  0
  6 38  1  0  0  0  0
  7 39  1  0  0  0  0
 19 40  1  0  0  0  0
 19 41  1  0  0  0  0
 26 42  1  0  0  0  0
 26 43  1  0  0  0  0
 27 44  1  0  0  0  0
 27 45  1  0  0  0  0
M  END
> <SMILES>
Nc1nc2cc(ccc2o1)-c1nn(c2ncnc(c12)N)Cc1ccc(cc1C(F)(F)F)F

> <FORMATTED_ID>
H3D-006907

> <MOLFORMULA>
C20H13F4N7O

> <Exact Mass>
443.11

> <XLogP>
4.77

> <TPSA_NOPS>
122

> <s_m_source_file>
ligprep_h3d.sdf

> <i_m_source_file_index>
2563

> <i_lp_mmshare_version>
55123

> <i_f3d_flags>
0

> <s_epik_input>
W05IMl1jKG4xKW9jKGMxMilbY0hdW2NIXWMoW2NIXTIpLWMoYyhjMzQpYyhbTkgyXSluW2NIXW40KW5uM1tDSDJdYzVbY0hdW2NIXWMoRilbY0hdYzVDKEYpKEYpRg==

> <s_epik_cmdline>
J2VwaWtfcHl0aG9uJywgJy1waHQnLCAnMC41JywgJy1waCcsICc3LjUnLCAnLXRuJywgJzgnLCAnLW1hJywgJzUwMCcsICctaW1hZScsICc8aW5maWxlLm1hZT4nLCAnLW9tYWUnLCAnPG91dGZpbGUubWFlPic=

> <r_lp_tautomer_probability>
1

> <r_epik_Ionization_Penalty>
0.000195885

> <r_epik_Ionization_Penalty_Charging>
0

> <r_epik_Ionization_Penalty_Neutral>
0.000195885

> <r_epik_State_Penalty>
-0

> <r_epik_Charging_Adjusted_Penalty>
0

> <i_epik_Tot_Q>
0

> <i_epik_Tot_abs_Q>
0

> <s_lp_Force_Field>
S-OPLS

> <r_lp_Energy>
26.4224

> <b_lp_Chiralities_Consistent>
1

> <s_lp_Variant>
ligprep_h3d.sdf:2563-1

> <ROCS_ShapeQuery>
_7L13

> <ROCS_TanimotoCombo>
0.822 

> <ROCS_ShapeTanimoto>
0.661 

> <ROCS_ColorTanimoto>
0.161 

> <ROCS_RefTversky>
0.771 

> <ROCS_RefColorTversky>
0.332 

> <ROCS_RefTverskyCombo>
1.103 

> <ROCS_FitTversky>
0.823 

> <ROCS_FitColorTversky>
0.238 

> <ROCS_FitTverskyCombo>
1.061 

> <ROCS_ColorScore>
-3.058

> <ROCS_Overlap>
1274.998

> <ROCS_Rank>
515                 

$$$$
ligprep_h3d.sdf:1213_1892
  -OEChem-08212117123D

 61 64  0     0  0  0  0  0  0999 V2000
  -26.6465   -4.7718  -22.3884 C   0  0  0  0  0  0  0  0  0  0  0  0
  -25.6595   -5.1423  -24.5945 C   0  0  0  0  0  0  0  0  0  0  0  0
  -24.5772   -5.0522  -25.4698 C   0  0  0  0  0  0  0  0  0  0  0  0
  -21.3110   -7.0333  -35.9067 C   0  0  0  0  0  0  0  0  0  0  0  0
  -21.7037   -7.5759  -37.1302 C   0  0  0  0  0  0  0  0  0  0  0  0
  -24.3324   -4.1279  -22.8490 C   0  0  0  0  0  0  0  0  0  0  0  0
  -19.9462   -8.9810  -35.4810 C   0  0  0  0  0  0  0  0  0  0  0  0
  -25.5371   -4.6801  -23.2841 C   0  0  0  0  0  0  0  0  0  0  0  0
  -23.3725   -4.5000  -25.0346 C   0  0  0  0  0  0  0  0  0  0  0  0
  -20.4322   -7.7359  -35.0821 C   0  0  0  0  0  0  0  0  0  0  0  0
  -20.2072   -4.2391  -27.6719 C   0  0  0  0  0  0  0  0  0  0  0  0
  -23.2500   -4.0378  -23.7242 C   0  0  0  0  0  0  0  0  0  0  0  0
  -21.2177   -8.8210  -37.5292 C   0  0  0  0  0  0  0  0  0  0  0  0
  -20.3390   -9.5236  -36.7046 C   0  0  0  0  0  0  0  0  0  0  0  0
  -21.5289   -4.1979  -28.1057 C   0  0  0  0  0  0  0  0  0  0  0  0
  -20.0254   -4.3971  -26.3078 C   0  0  0  0  0  0  0  0  0  0  0  0
  -22.2673   -4.4166  -25.9535 C   0  0  0  0  0  0  0  0  0  0  0  0
  -20.0145   -7.1574  -33.7790 C   0  0  0  0  0  0  0  0  0  0  0  0
  -20.8659   -4.8918  -31.6571 C   0  0  0  0  0  0  0  0  0  0  0  0
  -19.0513   -4.1812  -28.6240 C   0  0  0  0  0  0  0  0  0  0  0  0
  -21.8567   -4.0221  -29.5652 C   0  0  0  0  0  0  0  0  0  0  0  0
  -19.4551   -3.6049  -29.9796 C   0  0  0  0  0  0  0  0  0  0  0  0
  -18.0226   -3.2530  -25.3912 C   0  0  0  0  0  0  0  0  0  0  0  0
  -18.0381   -5.7376  -25.6644 C   0  0  0  0  0  0  0  0  0  0  0  0
  -21.9259   -2.0848  -23.4277 C   0  0  0  0  0  0  0  0  0  0  0  0
  -19.6317   -5.0623  -32.5063 C   0  0  0  0  0  0  0  0  0  0  0  0
  -27.5476   -4.8463  -21.6609 N   0  0  0  0  0  0  0  0  0  0  0  0
  -22.5791   -4.2756  -27.2559 N   0  0  0  0  0  0  0  0  0  0  0  0
  -21.0353   -4.4854  -25.4191 N   0  0  0  0  0  0  0  0  0  0  0  0
  -20.7021   -4.2220  -30.4448 N   0  0  0  0  0  0  0  0  0  0  0  0
  -20.0295   -5.7672  -33.6866 N   0  0  0  0  0  0  0  0  0  0  0  0
  -18.7056   -4.4615  -25.7968 N   0  0  0  0  0  0  0  0  0  0  0  0
  -19.6645   -7.9095  -32.8733 O   0  0  0  0  0  0  0  0  0  0  0  0
  -21.9420   -5.3429  -32.0577 O   0  0  0  0  0  0  0  0  0  0  0  0
  -22.0841   -3.4931  -23.2730 O   0  0  0  0  0  0  0  0  0  0  0  0
  -21.7413   -9.4380  -39.0569 Cl  0  0  0  0  0  0  0  0  0  0  0  0
  -19.7029  -11.0698  -37.1445 Cl  0  0  0  0  0  0  0  0  0  0  0  0
  -26.5928   -5.5746  -24.9482 H   0  0  0  0  0  0  0  0  0  0  0  0
  -24.6896   -5.4163  -26.4883 H   0  0  0  0  0  0  0  0  0  0  0  0
  -21.6954   -6.0622  -35.6051 H   0  0  0  0  0  0  0  0  0  0  0  0
  -22.3889   -7.0143  -37.7604 H   0  0  0  0  0  0  0  0  0  0  0  0
  -24.2285   -3.7650  -21.8284 H   0  0  0  0  0  0  0  0  0  0  0  0
  -19.2610   -9.5238  -34.8333 H   0  0  0  0  0  0  0  0  0  0  0  0
  -18.2586   -3.5630  -28.1812 H   0  0  0  0  0  0  0  0  0  0  0  0
  -18.6372   -5.1832  -28.7958 H   0  0  0  0  0  0  0  0  0  0  0  0
  -22.6071   -4.7629  -29.8517 H   0  0  0  0  0  0  0  0  0  0  0  0
  -22.2774   -3.0274  -29.7083 H   0  0  0  0  0  0  0  0  0  0  0  0
  -19.5532   -2.5204  -29.9087 H   0  0  0  0  0  0  0  0  0  0  0  0
  -18.6929   -3.8211  -30.7342 H   0  0  0  0  0  0  0  0  0  0  0  0
  -17.0166   -3.5051  -25.0247 H   0  0  0  0  0  0  0  0  0  0  0  0
  -17.9394   -2.5726  -26.2515 H   0  0  0  0  0  0  0  0  0  0  0  0
  -18.5925   -2.7615  -24.5889 H   0  0  0  0  0  0  0  0  0  0  0  0
  -17.0295   -5.5835  -25.2533 H   0  0  0  0  0  0  0  0  0  0  0  0
  -18.6150   -6.3846  -24.9873 H   0  0  0  0  0  0  0  0  0  0  0  0
  -17.9621   -6.2158  -26.6522 H   0  0  0  0  0  0  0  0  0  0  0  0
  -20.9555   -1.7803  -23.0280 H   0  0  0  0  0  0  0  0  0  0  0  0
  -22.7290   -1.5666  -22.8977 H   0  0  0  0  0  0  0  0  0  0  0  0
  -21.9738   -1.8363  -24.4905 H   0  0  0  0  0  0  0  0  0  0  0  0
  -18.9037   -5.6296  -31.9346 H   0  0  0  0  0  0  0  0  0  0  0  0
  -19.2476   -4.0756  -32.7465 H   0  0  0  0  0  0  0  0  0  0  0  0
  -20.2750   -5.2154  -34.5102 H   0  0  0  0  0  0  0  0  0  0  0  0
  1  8  1  0  0  0  0
  1 27  3  0  0  0  0
  2  3  1  0  0  0  0
  2  8  2  0  0  0  0
  3  9  2  0  0  0  0
  4  5  1  0  0  0  0
  4 10  2  0  0  0  0
  5 13  2  0  0  0  0
  6  8  1  0  0  0  0
  6 12  2  0  0  0  0
  7 10  1  0  0  0  0
  7 14  2  0  0  0  0
  9 12  1  0  0  0  0
  9 17  1  0  0  0  0
 10 18  1  0  0  0  0
 11 15  2  0  0  0  0
 11 16  1  0  0  0  0
 11 20  1  0  0  0  0
 12 35  1  0  0  0  0
 13 14  1  0  0  0  0
 13 36  1  0  0  0  0
 14 37  1  0  0  0  0
 15 21  1  0  0  0  0
 15 28  1  0  0  0  0
 16 29  2  0  0  0  0
 16 32  1  0  0  0  0
 17 28  2  0  0  0  0
 17 29  1  0  0  0  0
 18 31  1  0  0  0  0
 18 33  2  0  0  0  0
 19 26  1  0  0  0  0
 19 30  1  0  0  0  0
 19 34  2  0  0  0  0
 20 22  1  0  0  0  0
 21 30  1  0  0  0  0
 22 30  1  0  0  0  0
 23 32  1  0  0  0  0
 24 32  1  0  0  0  0
 25 35  1  0  0  0  0
 26 31  1  0  0  0  0
  2 38  1  0  0  0  0
  3 39  1  0  0  0  0
  4 40  1  0  0  0  0
  5 41  1  0  0  0  0
  6 42  1  0  0  0  0
  7 43  1  0  0  0  0
 20 44  1  0  0  0  0
 20 45  1  0  0  0  0
 21 46  1  0  0  0  0
 21 47  1  0  0  0  0
 22 48  1  0  0  0  0
 22 49  1  0  0  0  0
 23 50  1  0  0  0  0
 23 51  1  0  0  0  0
 23 52  1  0  0  0  0
 24 53  1  0  0  0  0
 24 54  1  0  0  0  0
 24 55  1  0  0  0  0
 25 56  1  0  0  0  0
 25 57  1  0  0  0  0
 25 58  1  0  0  0  0
 26 59  1  0  0  0  0
 26 60  1  0  0  0  0
 31 61  1  0  0  0  0
M  END
> <SMILES>
COc1cc(ccc1-c1nc2c(c(n1)N(C)C)CCN(C2)C(=O)CNC(=O)c1ccc(c(c1)Cl)Cl)C#N

> <FORMATTED_ID>
H3D-008340

> <MOLFORMULA>
C26H24Cl2N6O3

> <Exact Mass>
538.13

> <XLogP>
3.97

> <TPSA_NOPS>
111.5

> <s_m_source_file>
ligprep_h3d.sdf

> <i_m_source_file_index>
1213

> <i_lp_mmshare_version>
55123

> <i_f3d_flags>
0

> <s_epik_input>
W0NIM11PYzFbY0hdYyhDI04pW2NIXVtjSF1jMS1jKG4yKW5jKE4oW0NIM10pW0NIM10pYyhjMjMpW0NIMl1bQ0gyXU4oW0NIMl0zKUMoPU8pW0NIMl1bTkhdQyg9TyljNFtjSF1bY0hdYyhDbCljKENsKVtjSF00

> <s_epik_cmdline>
J2VwaWtfcHl0aG9uJywgJy1waHQnLCAnMC41JywgJy1waCcsICc3LjUnLCAnLXRuJywgJzgnLCAnLW1hJywgJzUwMCcsICctaW1hZScsICc8aW5maWxlLm1hZT4nLCAnLW9tYWUnLCAnPG91dGZpbGUubWFlPic=

> <r_lp_tautomer_probability>
1

> <r_epik_Ionization_Penalty>
0.0219543

> <r_epik_Ionization_Penalty_Charging>
0

> <r_epik_Ionization_Penalty_Neutral>
0.0219543

> <r_epik_State_Penalty>
0.0174957

> <r_epik_Charging_Adjusted_Penalty>
0.0174957

> <i_epik_Tot_Q>
0

> <i_epik_Tot_abs_Q>
0

> <s_lp_Force_Field>
S-OPLS

> <r_lp_Energy>
70.4192

> <b_lp_Chiralities_Consistent>
1

> <s_lp_Variant>
ligprep_h3d.sdf:1213-1

> <ROCS_ShapeQuery>
_7L13

> <ROCS_TanimotoCombo>
0.815 

> <ROCS_ShapeTanimoto>
0.623 

> <ROCS_ColorTanimoto>
0.192 

> <ROCS_RefTversky>
0.771 

> <ROCS_RefColorTversky>
0.355 

> <ROCS_RefTverskyCombo>
1.125 

> <ROCS_FitTversky>
0.765 

> <ROCS_FitColorTversky>
0.296 

> <ROCS_FitTverskyCombo>
1.061 

> <ROCS_ColorScore>
-3.229

> <ROCS_Overlap>
1280.050

> <ROCS_Rank>
516                 

$$$$
ligprep_h3d.sdf:1264_1321
  -OEChem-08212117123D

 72 76  0     1  0  0  0  0  0999 V2000
  -20.9057   -3.9080  -32.2901 C   0  0  0  0  0  0  0  0  0  0  0  0
  -21.4606   -6.2477  -32.0554 C   0  0  0  0  0  0  0  0  0  0  0  0
  -20.4994   -4.1362  -33.6048 C   0  0  0  0  0  0  0  0  0  0  0  0
  -21.0544   -6.4759  -33.3702 C   0  0  0  0  0  0  0  0  0  0  0  0
  -17.2110   -6.1277  -26.9184 C   0  0  0  0  0  0  0  0  0  0  0  0
  -23.5481   -4.1554  -28.5721 C   0  0  0  0  0  0  0  0  0  0  0  0
  -20.8857   -4.4679  -25.3965 C   0  0  0  0  0  0  0  0  0  0  0  0
  -17.0333   -4.7366  -27.0418 C   0  0  0  0  0  0  0  0  0  0  0  0
  -21.3271   -4.6016  -27.7698 C   0  0  0  0  0  0  0  0  0  0  0  0
  -21.3862   -4.9638  -31.5154 C   0  0  0  0  0  0  0  0  0  0  0  0
  -21.8093   -4.7259  -30.1454 C   0  0  0  0  0  0  0  0  0  0  0  0
  -20.5738   -5.4201  -34.1449 C   0  0  0  0  0  0  0  0  0  0  0  0
  -23.1312   -4.3863  -29.8854 C   0  0  0  0  0  0  0  0  0  0  0  0
  -20.9075   -4.8338  -29.0906 C   0  0  0  0  0  0  0  0  0  0  0  0
  -22.6677   -4.2565  -27.4984 C   0  0  0  0  0  0  0  0  0  0  0  0
  -20.4404   -4.7032  -26.6893 C   0  0  0  0  0  0  0  0  0  0  0  0
  -22.2150   -4.1360  -25.2300 C   0  0  0  0  0  0  0  0  0  0  0  0
  -18.5664   -6.2884  -26.7649 C   0  0  0  0  0  0  0  0  0  0  0  0
  -18.2373   -8.2978  -35.7585 C   0  0  0  0  0  0  0  0  0  0  0  0
  -22.7462   -3.8784  -23.9026 C   0  0  0  0  0  0  0  0  0  0  0  0
  -18.2571   -6.4233  -37.0518 C   0  0  0  0  0  0  0  0  0  0  0  0
  -18.6624   -6.0240  -35.6462 C   0  0  1  0  0  0  0  0  0  0  0  0
  -24.1408   -4.2556  -30.9813 C   0  0  0  0  0  0  0  0  0  0  0  0
  -19.4954   -5.2046  -29.4485 C   0  0  0  0  0  0  0  0  0  0  0  0
  -19.3741   -7.5113  -26.5886 C   0  0  0  0  0  0  0  0  0  0  0  0
  -28.1916   -6.2977  -22.8799 C   0  0  0  0  0  0  0  0  0  0  0  0
  -20.1392   -5.6642  -35.5505 C   0  0  0  0  0  0  0  0  0  0  0  0
  -24.7755   -3.9594  -22.4307 C   0  0  0  0  0  0  0  0  0  0  0  0
  -26.2320   -4.3787  -22.4856 C   0  0  0  0  0  0  0  0  0  0  0  0
  -18.1838   -4.0617  -26.9729 N   0  0  0  0  0  0  0  0  0  0  0  0
  -23.1027   -4.0274  -26.2449 N   0  0  0  0  0  0  0  0  0  0  0  0
  -25.8567   -6.9081  -21.7322 N   0  0  0  0  0  0  0  0  0  0  0  0
  -19.0975   -5.0328  -26.8046 N   0  0  0  0  0  0  0  0  0  0  0  0
  -18.3773   -7.2190  -34.9139 N   0  0  0  0  0  0  0  0  0  0  0  0
  -24.0966   -4.1806  -23.6873 N   0  0  0  0  0  0  0  0  0  0  0  0
  -18.0899   -9.4681  -35.4364 O   0  0  0  0  0  0  0  0  0  0  0  0
  -22.0227   -3.3907  -23.0151 O   0  0  0  0  0  0  0  0  0  0  0  0
  -26.0133   -6.2227  -24.3006 O   0  0  0  0  0  0  0  0  0  0  0  0
  -18.2967   -7.8618  -37.0584 O   0  0  0  0  0  0  0  0  0  0  0  0
  -26.4248   -6.0814  -22.9115 S   0  0  1  0  0  0  0  0  0  0  0  0
  -20.8410   -2.9016  -31.8833 H   0  0  0  0  0  0  0  0  0  0  0  0
  -21.8335   -7.0808  -31.4644 H   0  0  0  0  0  0  0  0  0  0  0  0
  -20.1253   -3.3080  -34.2008 H   0  0  0  0  0  0  0  0  0  0  0  0
  -21.1162   -7.4794  -33.7831 H   0  0  0  0  0  0  0  0  0  0  0  0
  -16.4598   -6.9037  -26.9385 H   0  0  0  0  0  0  0  0  0  0  0  0
  -24.5877   -3.8900  -28.3830 H   0  0  0  0  0  0  0  0  0  0  0  0
  -20.2194   -4.5399  -24.5413 H   0  0  0  0  0  0  0  0  0  0  0  0
  -16.1133   -4.1868  -27.1793 H   0  0  0  0  0  0  0  0  0  0  0  0
  -18.9429   -6.0602  -37.8253 H   0  0  0  0  0  0  0  0  0  0  0  0
  -17.2406   -6.0955  -37.2909 H   0  0  0  0  0  0  0  0  0  0  0  0
  -18.0432   -5.2385  -35.2587 H   0  0  0  0  0  0  0  0  0  0  0  0
  -24.1585   -3.2271  -31.3576 H   0  0  0  0  0  0  0  0  0  0  0  0
  -23.9088   -4.9304  -31.8134 H   0  0  0  0  0  0  0  0  0  0  0  0
  -25.1443   -4.5173  -30.6258 H   0  0  0  0  0  0  0  0  0  0  0  0
  -19.3838   -6.2916  -29.4365 H   0  0  0  0  0  0  0  0  0  0  0  0
  -19.2373   -4.8296  -30.4427 H   0  0  0  0  0  0  0  0  0  0  0  0
  -18.7886   -4.7647  -28.7392 H   0  0  0  0  0  0  0  0  0  0  0  0
  -19.4851   -7.7636  -25.5213 H   0  0  0  0  0  0  0  0  0  0  0  0
  -20.3862   -7.4036  -27.0146 H   0  0  0  0  0  0  0  0  0  0  0  0
  -18.9220   -8.3820  -27.0937 H   0  0  0  0  0  0  0  0  0  0  0  0
  -28.4161   -7.3348  -23.1340 H   0  0  0  0  0  0  0  0  0  0  0  0
  -28.5492   -6.0640  -21.8760 H   0  0  0  0  0  0  0  0  0  0  0  0
  -28.6346   -5.6202  -23.6113 H   0  0  0  0  0  0  0  0  0  0  0  0
  -20.7364   -6.4725  -36.0023 H   0  0  0  0  0  0  0  0  0  0  0  0
  -20.3342   -4.7758  -36.1726 H   0  0  0  0  0  0  0  0  0  0  0  0
  -24.6718   -2.8988  -22.1814 H   0  0  0  0  0  0  0  0  0  0  0  0
  -24.2437   -4.5451  -21.6747 H   0  0  0  0  0  0  0  0  0  0  0  0
  -26.7635   -3.8092  -23.2540 H   0  0  0  0  0  0  0  0  0  0  0  0
  -26.7343   -4.2299  -21.5250 H   0  0  0  0  0  0  0  0  0  0  0  0
  -24.8376   -6.8672  -21.6392 H   0  0  0  0  0  0  0  0  0  0  0  0
  -18.2895   -7.2653  -33.9013 H   0  0  0  0  0  0  0  0  0  0  0  0
  -24.6584   -4.5174  -24.4623 H   0  0  0  0  0  0  0  0  0  0  0  0
  1  3  1  0  0  0  0
  1 10  2  0  0  0  0
  2  4  2  0  0  0  0
  2 10  1  0  0  0  0
  3 12  2  0  0  0  0
  4 12  1  0  0  0  0
  5  8  1  0  0  0  0
  5 18  2  0  0  0  0
  6 13  2  0  0  0  0
  6 15  1  0  0  0  0
  7 16  1  0  0  0  0
  7 17  2  0  0  0  0
  8 30  2  0  0  0  0
  9 14  1  0  0  0  0
  9 15  1  0  0  0  0
  9 16  2  0  0  0  0
 10 11  1  0  0  0  0
 11 13  1  0  0  0  0
 11 14  2  0  0  0  0
 12 27  1  0  0  0  0
 13 23  1  0  0  0  0
 14 24  1  0  0  0  0
 15 31  2  0  0  0  0
 16 33  1  0  0  0  0
 17 20  1  0  0  0  0
 17 31  1  0  0  0  0
 18 25  1  0  0  0  0
 18 33  1  0  0  0  0
 19 34  1  0  0  0  0
 19 36  2  0  0  0  0
 19 39  1  0  0  0  0
 20 35  1  0  0  0  0
 20 37  2  0  0  0  0
 21 22  1  0  0  0  0
 21 39  1  0  0  0  0
 22 27  1  0  0  0  0
 22 34  1  0  0  0  0
 26 40  1  0  0  0  0
 28 29  1  0  0  0  0
 28 35  1  0  0  0  0
 29 40  1  0  0  0  0
 30 33  1  0  0  0  0
 32 40  2  0  0  0  0
 38 40  2  0  0  0  0
  1 41  1  0  0  0  0
  2 42  1  0  0  0  0
  3 43  1  0  0  0  0
  4 44  1  0  0  0  0
  5 45  1  0  0  0  0
  6 46  1  0  0  0  0
  7 47  1  0  0  0  0
  8 48  1  0  0  0  0
 21 49  1  0  0  0  0
 21 50  1  0  0  0  0
 22 51  1  0  0  0  0
 23 52  1  0  0  0  0
 23 53  1  0  0  0  0
 23 54  1  0  0  0  0
 24 55  1  0  0  0  0
 24 56  1  0  0  0  0
 24 57  1  0  0  0  0
 25 58  1  0  0  0  0
 25 59  1  0  0  0  0
 25 60  1  0  0  0  0
 26 61  1  0  0  0  0
 26 62  1  0  0  0  0
 26 63  1  0  0  0  0
 27 64  1  0  0  0  0
 27 65  1  0  0  0  0
 28 66  1  0  0  0  0
 28 67  1  0  0  0  0
 29 68  1  0  0  0  0
 29 69  1  0  0  0  0
 32 70  1  0  0  0  0
 34 71  1  0  0  0  0
 35 72  1  0  0  0  0
M  END
> <SMILES>
Cc1cc2nc(cc(c2c(c1-c1ccc(cc1)C[C@@H]1COC(=O)N1)C)-n1nccc1C)C(=O)NCCS(=N)(=O)C

> <FORMATTED_ID>
H3D-008557

> <MOLFORMULA>
C29H32N6O4S

> <Exact Mass>
560.22

> <XLogP>
3.45

> <TPSA_NOPS>
147.4

> <s_m_source_file>
ligprep_h3d.sdf

> <i_m_source_file_index>
1264

> <i_lp_mmshare_version>
55123

> <i_f3d_flags>
0

> <s_epik_input>
Tz1DKFtOSF0xKU9bQ0gyXVtDQEhdMVtDSDJdYyhbY0hdW2NIXTIpW2NIXVtjSF1jMi1jKGMoW0NIM10pW2NIXTMpYyhbQ0gzXSljKGMzNCljKC1uNW5bY0hdW2NIXWM1W0NIM10pW2NIXWMobjQpQyg9TylbTkhdW0NIMl1bQ0gyXVtTQEBdKD1PKSg9W05IXSlbQ0gzXQ==

> <s_epik_cmdline>
J2VwaWtfcHl0aG9uJywgJy1waHQnLCAnMC41JywgJy1waCcsICc3LjUnLCAnLXRuJywgJzgnLCAnLW1hJywgJzUwMCcsICctaW1hZScsICc8aW5maWxlLm1hZT4nLCAnLW9tYWUnLCAnPG91dGZpbGUubWFlPic=

> <r_lp_tautomer_probability>
1

> <r_epik_Ionization_Penalty>
2.44029e-05

> <r_epik_Ionization_Penalty_Charging>
0

> <r_epik_Ionization_Penalty_Neutral>
2.44029e-05

> <r_epik_State_Penalty>
-0

> <r_epik_Charging_Adjusted_Penalty>
0

> <i_epik_Tot_Q>
0

> <i_epik_Tot_abs_Q>
0

> <s_epik_Chemistry_Notes>
This compound has an ester and may undergo hydrolysis at high or low pH.

> <s_lp_Force_Field>
S-OPLS

> <r_lp_Energy>
26.3231

> <b_lp_Chiralities_Consistent>
1

> <s_lp_Variant>
ligprep_h3d.sdf:1264-1

> <ROCS_ShapeQuery>
_7L13

> <ROCS_TanimotoCombo>
0.689 

> <ROCS_ShapeTanimoto>
0.583 

> <ROCS_ColorTanimoto>
0.106 

> <ROCS_RefTversky>
0.770 

> <ROCS_RefColorTversky>
0.221 

> <ROCS_RefTverskyCombo>
0.991 

> <ROCS_FitTversky>
0.705 

> <ROCS_FitColorTversky>
0.170 

> <ROCS_FitTverskyCombo>
0.876 

> <ROCS_ColorScore>
-2.019

> <ROCS_Overlap>
1285.979

> <ROCS_Rank>
517                 

$$$$
ligprep_h3d.sdf:4360_1910
  -OEChem-08212117123D

 61 66  0     0  0  0  0  0  0999 V2000
  -20.2584   -6.1235  -36.2655 C   0  0  0  0  0  0  0  0  0  0  0  0
  -19.6698   -6.9447  -37.2208 C   0  0  0  0  0  0  0  0  0  0  0  0
  -20.4734   -4.4130  -25.5016 C   0  0  0  0  0  0  0  0  0  0  0  0
  -22.4386   -3.5359  -26.5755 C   0  0  0  0  0  0  0  0  0  0  0  0
  -21.4128   -4.5653  -30.5816 C   0  0  0  0  0  0  0  0  0  0  0  0
  -19.8723   -4.4469  -26.7495 C   0  0  0  0  0  0  0  0  0  0  0  0
  -19.8952   -7.8306  -34.6497 C   0  0  0  0  0  0  0  0  0  0  0  0
  -23.0769   -3.3262  -32.4911 C   0  0  0  0  0  0  0  0  0  0  0  0
  -20.3770   -6.5674  -34.9532 C   0  0  0  0  0  0  0  0  0  0  0  0
  -21.7812   -3.9475  -25.4215 C   0  0  0  0  0  0  0  0  0  0  0  0
  -22.1761   -4.3143  -32.8894 C   0  0  0  0  0  0  0  0  0  0  0  0
  -21.3675   -4.9085  -31.9258 C   0  0  0  0  0  0  0  0  0  0  0  0
  -19.2195   -8.1909  -36.8158 C   0  0  0  0  0  0  0  0  0  0  0  0
  -21.7494   -3.6088  -27.7753 C   0  0  0  0  0  0  0  0  0  0  0  0
  -22.3392   -3.5749  -30.2882 C   0  0  0  0  0  0  0  0  0  0  0  0
  -20.9830   -5.7385  -33.9394 C   0  0  0  0  0  0  0  0  0  0  0  0
  -22.4597   -3.8922  -24.1321 C   0  0  0  0  0  0  0  0  0  0  0  0
  -28.0527   -5.4800  -21.4684 C   0  0  0  0  0  0  0  0  0  0  0  0
  -28.8416   -5.5802  -22.7432 C   0  0  0  0  0  0  0  0  0  0  0  0
  -24.6286   -4.8412  -25.1004 C   0  0  0  0  0  0  0  0  0  0  0  0
  -24.6697   -3.3319  -23.1572 C   0  0  0  0  0  0  0  0  0  0  0  0
  -25.5342   -5.8309  -24.3823 C   0  0  0  0  0  0  0  0  0  0  0  0
  -25.5841   -4.2900  -22.4061 C   0  0  0  0  0  0  0  0  0  0  0  0
  -27.3943   -5.9814  -22.7217 C   0  0  0  0  0  0  0  0  0  0  0  0
  -18.5826   -9.0984  -37.8146 C   0  0  0  0  0  0  0  0  0  0  0  0
  -19.3175   -8.6567  -35.5505 N   0  0  0  0  0  0  0  0  0  0  0  0
  -20.4788   -4.0554  -27.8925 N   0  0  0  0  0  0  0  0  0  0  0  0
  -23.1506   -2.9633  -31.1864 N   0  0  0  0  0  0  0  0  0  0  0  0
  -21.9240   -4.8418  -34.1341 N   0  0  0  0  0  0  0  0  0  0  0  0
  -20.6142   -5.8158  -32.6250 N   0  0  0  0  0  0  0  0  0  0  0  0
  -23.8535   -4.0538  -24.1330 N   0  0  0  0  0  0  0  0  0  0  0  0
  -22.4322   -3.1853  -28.9426 N   0  0  0  0  0  0  0  0  0  0  0  0
  -26.4079   -5.0753  -23.4034 N   0  3  0  0  0  0  0  0  0  0  0  0
  -21.7958   -3.7140  -23.1114 O   0  0  0  0  0  0  0  0  0  0  0  0
  -18.5156   -8.5675  -39.0710 F   0  0  0  0  0  0  0  0  0  0  0  0
  -17.2975   -9.4382  -37.5019 F   0  0  0  0  0  0  0  0  0  0  0  0
  -19.2516  -10.2799  -37.9510 F   0  0  0  0  0  0  0  0  0  0  0  0
  -20.6196   -5.1408  -36.5584 H   0  0  0  0  0  0  0  0  0  0  0  0
  -19.5712   -6.6103  -38.2479 H   0  0  0  0  0  0  0  0  0  0  0  0
  -19.9322   -4.7420  -24.6209 H   0  0  0  0  0  0  0  0  0  0  0  0
  -23.4599   -3.1687  -26.5332 H   0  0  0  0  0  0  0  0  0  0  0  0
  -20.7783   -5.0331  -29.8395 H   0  0  0  0  0  0  0  0  0  0  0  0
  -18.8536   -4.8018  -26.8658 H   0  0  0  0  0  0  0  0  0  0  0  0
  -19.9578   -8.2359  -33.6438 H   0  0  0  0  0  0  0  0  0  0  0  0
  -23.7403   -2.8128  -33.1756 H   0  0  0  0  0  0  0  0  0  0  0  0
  -27.8024   -4.4899  -21.1075 H   0  0  0  0  0  0  0  0  0  0  0  0
  -28.2643   -6.2002  -20.6874 H   0  0  0  0  0  0  0  0  0  0  0  0
  -29.5819   -6.3675  -22.8166 H   0  0  0  0  0  0  0  0  0  0  0  0
  -29.1201   -4.6572  -23.2368 H   0  0  0  0  0  0  0  0  0  0  0  0
  -23.9759   -5.3820  -25.7900 H   0  0  0  0  0  0  0  0  0  0  0  0
  -25.2192   -4.1374  -25.6993 H   0  0  0  0  0  0  0  0  0  0  0  0
  -25.2542   -2.5816  -23.7028 H   0  0  0  0  0  0  0  0  0  0  0  0
  -24.0329   -2.7962  -22.4459 H   0  0  0  0  0  0  0  0  0  0  0  0
  -26.2004   -6.3332  -25.0912 H   0  0  0  0  0  0  0  0  0  0  0  0
  -24.9633   -6.5770  -23.8182 H   0  0  0  0  0  0  0  0  0  0  0  0
  -25.0173   -5.0059  -21.8001 H   0  0  0  0  0  0  0  0  0  0  0  0
  -26.2834   -3.7393  -21.7686 H   0  0  0  0  0  0  0  0  0  0  0  0
  -27.1680   -7.0395  -22.7786 H   0  0  0  0  0  0  0  0  0  0  0  0
  -19.9116   -6.4299  -32.2340 H   0  0  0  0  0  0  0  0  0  0  0  0
  -23.1177   -2.4610  -28.7644 H   0  0  0  0  0  0  0  0  0  0  0  0
  -26.9730   -4.3974  -23.9462 H   0  0  0  0  0  0  0  0  0  0  0  0
  1  2  1  0  0  0  0
  1  9  2  0  0  0  0
  2 13  2  0  0  0  0
  3  6  1  0  0  0  0
  3 10  2  0  0  0  0
  4 10  1  0  0  0  0
  4 14  2  0  0  0  0
  5 12  2  0  0  0  0
  5 15  1  0  0  0  0
  6 27  2  0  0  0  0
  7  9  1  0  0  0  0
  7 26  2  0  0  0  0
  8 11  2  0  0  0  0
  8 28  1  0  0  0  0
  9 16  1  0  0  0  0
 10 17  1  0  0  0  0
 11 12  1  0  0  0  0
 11 29  1  0  0  0  0
 12 30  1  0  0  0  0
 13 25  1  0  0  0  0
 13 26  1  0  0  0  0
 14 27  1  0  0  0  0
 14 32  1  0  0  0  0
 15 28  2  0  0  0  0
 15 32  1  0  0  0  0
 16 29  2  0  0  0  0
 16 30  1  0  0  0  0
 17 31  1  0  0  0  0
 17 34  2  0  0  0  0
 18 19  1  0  0  0  0
 18 24  1  0  0  0  0
 19 24  1  0  0  0  0
 20 22  1  0  0  0  0
 20 31  1  0  0  0  0
 21 23  1  0  0  0  0
 21 31  1  0  0  0  0
 22 33  1  0  0  0  0
 23 33  1  0  0  0  0
 24 33  1  0  0  0  0
 25 35  1  0  0  0  0
 25 36  1  0  0  0  0
 25 37  1  0  0  0  0
  1 38  1  0  0  0  0
  2 39  1  0  0  0  0
  3 40  1  0  0  0  0
  4 41  1  0  0  0  0
  5 42  1  0  0  0  0
  6 43  1  0  0  0  0
  7 44  1  0  0  0  0
  8 45  1  0  0  0  0
 18 46  1  0  0  0  0
 18 47  1  0  0  0  0
 19 48  1  0  0  0  0
 19 49  1  0  0  0  0
 20 50  1  0  0  0  0
 20 51  1  0  0  0  0
 21 52  1  0  0  0  0
 21 53  1  0  0  0  0
 22 54  1  0  0  0  0
 22 55  1  0  0  0  0
 23 56  1  0  0  0  0
 23 57  1  0  0  0  0
 24 58  1  0  0  0  0
 30 59  1  0  0  0  0
 32 60  1  0  0  0  0
 33 61  1  0  0  0  0
M  CHG  1  33   1
M  END
> <SMILES>
FC(F)(F)c1ccc(cn1)-c1nc2cnc(cc2[nH]1)Nc1cc(ccn1)C(=O)N1CCN(CC1)C1CC1

> <FORMATTED_ID>
H3D-003895

> <MOLFORMULA>
C25H23F3N8O

> <Exact Mass>
508.19

> <XLogP>
3.3

> <TPSA_NOPS>
102.9

> <s_m_source_file>
ligprep_h3d.sdf

> <i_m_source_file_index>
4360

> <i_lp_mmshare_version>
55123

> <i_f3d_flags>
0

> <s_epik_input>
RkMoRikoRiljMVtjSF1bY0hdYyhbY0hdbjEpLWMobjIpW25IXWMoYzIzKVtjSF1jKG5bY0hdMylbTkhdYzRbY0hdYyhbY0hdW2NIXW40KUMoPU8pTjVbQ0gyXVtDSDJdTihbQ0gyXVtDSDJdNSlbQ0hdNltDSDJdW0NIMl02

> <s_epik_cmdline>
J2VwaWtfcHl0aG9uJywgJy1waHQnLCAnMC41JywgJy1waCcsICc3LjUnLCAnLXRuJywgJzgnLCAnLW1hJywgJzUwMCcsICctaW1hZScsICc8aW5maWxlLm1hZT4nLCAnLW9tYWUnLCAnPG91dGZpbGUubWFlPic=

> <r_lp_tautomer_probability>
1

> <r_epik_Ionization_Penalty>
0.131419

> <r_epik_Ionization_Penalty_Charging>
0.131146

> <r_epik_Ionization_Penalty_Neutral>
0.000273238

> <r_epik_State_Penalty>
-0

> <r_epik_Charging_Adjusted_Penalty>
0.131146

> <i_epik_Tot_Q>
1

> <i_epik_Tot_abs_Q>
1

> <s_lp_Force_Field>
S-OPLS

> <r_lp_Energy>
56.485

> <b_lp_Chiralities_Consistent>
1

> <s_lp_Variant>
ligprep_h3d.sdf:4360-1

> <ROCS_ShapeQuery>
_7L13

> <ROCS_TanimotoCombo>
0.759 

> <ROCS_ShapeTanimoto>
0.606 

> <ROCS_ColorTanimoto>
0.153 

> <ROCS_RefTversky>
0.770 

> <ROCS_RefColorTversky>
0.330 

> <ROCS_RefTverskyCombo>
1.101 

> <ROCS_FitTversky>
0.739 

> <ROCS_FitColorTversky>
0.222 

> <ROCS_FitTverskyCombo>
0.961 

> <ROCS_ColorScore>
-3.056

> <ROCS_Overlap>
1282.280

> <ROCS_Rank>
518                 

$$$$
ligprep_h3d.sdf:727_23
  -OEChem-08212117123D

 59 64  0     1  0  0  0  0  0999 V2000
  -20.9687   -5.1296  -29.5094 C   0  0  0  0  0  0  0  0  0  0  0  0
  -21.7459   -4.3723  -30.3880 C   0  0  0  0  0  0  0  0  0  0  0  0
  -21.0829   -4.8901  -28.1183 C   0  0  0  0  0  0  0  0  0  0  0  0
  -21.9844   -3.9411  -27.5817 C   0  0  0  0  0  0  0  0  0  0  0  0
  -22.5964   -3.4255  -29.8613 C   0  0  0  0  0  0  0  0  0  0  0  0
  -22.7451   -3.1752  -28.4969 C   0  0  0  0  0  0  0  0  0  0  0  0
  -21.9424   -4.2640  -31.7773 C   0  0  0  0  0  0  0  0  0  0  0  0
  -18.9200   -3.8244  -26.2014 C   0  0  0  0  0  0  0  0  0  0  0  0
  -19.2573   -6.0925  -25.0232 C   0  0  0  0  0  0  0  0  0  0  0  0
  -16.9992   -5.3258  -25.7242 C   0  0  0  0  0  0  0  0  0  0  0  0
  -20.2149   -5.7106  -27.2019 C   0  0  0  0  0  0  0  0  0  0  0  0
  -21.3297   -6.5140  -32.6994 C   0  0  0  0  0  0  0  0  0  0  0  0
  -20.3792   -4.5366  -33.7190 C   0  0  0  0  0  0  0  0  0  0  0  0
  -23.0512   -2.7998  -25.6472 C   0  0  0  0  0  0  0  0  0  0  0  0
  -21.2131   -4.4774  -25.2362 C   0  0  2  0  0  0  0  0  0  0  0  0
  -20.6631   -6.8937  -34.0192 C   0  0  1  0  0  0  0  0  0  0  0  0
  -19.6524   -5.7753  -34.2380 C   0  0  1  0  0  0  0  0  0  0  0  0
  -23.4222   -3.1139  -24.1951 C   0  0  1  0  0  0  0  0  0  0  0  0
  -21.0489   -3.5439  -24.0015 C   0  0  2  0  0  0  0  0  0  0  0  0
  -19.8835   -4.9781  -25.8777 C   0  0  0  0  0  0  0  0  0  0  0  0
  -24.4091   -4.2739  -24.0778 C   0  0  0  0  0  0  0  0  0  0  0  0
  -20.0947   -4.0276  -22.9160 C   0  0  0  0  0  0  0  0  0  0  0  0
  -22.8405   -3.3250  -32.0904 N   0  0  0  0  0  0  0  0  0  0  0  0
  -17.5770   -4.1663  -26.2209 N   0  0  0  0  0  0  0  0  0  0  0  0
  -17.8801   -6.2140  -25.1238 N   0  0  0  0  0  0  0  0  0  0  0  0
  -22.0954   -3.7680  -26.2000 N   0  0  3  0  0  0  0  0  0  0  0  0
  -21.2593   -5.0557  -32.6760 N   0  0  0  0  0  0  0  0  0  0  0  0
  -19.2987   -2.6889  -26.4884 O   0  0  0  0  0  0  0  0  0  0  0  0
  -19.9294   -6.8851  -24.3619 O   0  0  0  0  0  0  0  0  0  0  0  0
  -15.7857   -5.5332  -25.7759 O   0  0  0  0  0  0  0  0  0  0  0  0
  -23.2516   -2.7937  -30.8734 O   0  0  0  0  0  0  0  0  0  0  0  0
  -22.3109   -3.3760  -23.3437 O   0  0  0  0  0  0  0  0  0  0  0  0
  -20.0177   -8.1496  -33.9101 O   0  0  0  0  0  0  0  0  0  0  0  0
  -19.3442   -5.6561  -35.6152 O   0  0  0  0  0  0  0  0  0  0  0  0
  -23.5258   -2.1516  -28.1313 F   0  0  0  0  0  0  0  0  0  0  0  0
  -20.2821   -5.8826  -29.8862 H   0  0  0  0  0  0  0  0  0  0  0  0
  -20.7441   -6.6529  -27.0042 H   0  0  0  0  0  0  0  0  0  0  0  0
  -19.2837   -5.9764  -27.7209 H   0  0  0  0  0  0  0  0  0  0  0  0
  -22.3835   -6.8204  -32.6916 H   0  0  0  0  0  0  0  0  0  0  0  0
  -20.8169   -6.9529  -31.8344 H   0  0  0  0  0  0  0  0  0  0  0  0
  -19.6714   -3.8277  -33.2705 H   0  0  0  0  0  0  0  0  0  0  0  0
  -20.9491   -4.0314  -34.5086 H   0  0  0  0  0  0  0  0  0  0  0  0
  -23.9626   -2.8402  -26.2790 H   0  0  0  0  0  0  0  0  0  0  0  0
  -22.7382   -1.7452  -25.6871 H   0  0  0  0  0  0  0  0  0  0  0  0
  -21.7926   -5.3549  -24.9099 H   0  0  0  0  0  0  0  0  0  0  0  0
  -21.4136   -6.9503  -34.8310 H   0  0  0  0  0  0  0  0  0  0  0  0
  -18.7133   -5.9428  -33.6777 H   0  0  0  0  0  0  0  0  0  0  0  0
  -23.9678   -2.2058  -23.7603 H   0  0  0  0  0  0  0  0  0  0  0  0
  -20.7022   -2.5412  -24.3119 H   0  0  0  0  0  0  0  0  0  0  0  0
  -23.9620   -5.1858  -24.4742 H   0  0  0  0  0  0  0  0  0  0  0  0
  -25.3155   -4.0511  -24.6410 H   0  0  0  0  0  0  0  0  0  0  0  0
  -24.6730   -4.4351  -23.0324 H   0  0  0  0  0  0  0  0  0  0  0  0
  -20.3927   -5.0181  -22.5722 H   0  0  0  0  0  0  0  0  0  0  0  0
  -20.1124   -3.3396  -22.0708 H   0  0  0  0  0  0  0  0  0  0  0  0
  -19.0793   -4.0799  -23.3087 H   0  0  0  0  0  0  0  0  0  0  0  0
  -16.9460   -3.4936  -26.6457 H   0  0  0  0  0  0  0  0  0  0  0  0
  -17.4632   -7.0168  -24.6613 H   0  0  0  0  0  0  0  0  0  0  0  0
  -20.7036   -8.7972  -33.6812 H   0  0  0  0  0  0  0  0  0  0  0  0
  -18.7743   -4.8758  -35.7075 H   0  0  0  0  0  0  0  0  0  0  0  0
  1  2  2  0  0  0  0
  1  3  1  0  0  0  0
  2  5  1  0  0  0  0
  2  7  1  0  0  0  0
  3  4  2  0  0  0  0
  3 11  1  0  0  0  0
  4  6  1  0  0  0  0
  4 26  1  0  0  0  0
  5  6  2  0  0  0  0
  5 31  1  0  0  0  0
  6 35  1  0  0  0  0
  7 23  2  0  0  0  0
  7 27  1  0  0  0  0
  8 20  1  0  0  0  0
  8 24  1  0  0  0  0
  8 28  2  0  0  0  0
  9 20  1  0  0  0  0
  9 25  1  0  0  0  0
  9 29  2  0  0  0  0
 10 24  1  0  0  0  0
 10 25  1  0  0  0  0
 10 30  2  0  0  0  0
 11 20  1  0  0  0  0
 12 16  1  0  0  0  0
 12 27  1  0  0  0  0
 13 17  1  0  0  0  0
 13 27  1  0  0  0  0
 14 18  1  0  0  0  0
 14 26  1  0  0  0  0
 15 19  1  0  0  0  0
 15 20  1  0  0  0  0
 15 26  1  0  0  0  0
 16 17  1  0  0  0  0
 16 33  1  0  0  0  0
 17 34  1  0  0  0  0
 18 21  1  0  0  0  0
 18 32  1  0  0  0  0
 19 22  1  0  0  0  0
 19 32  1  0  0  0  0
 23 31  1  0  0  0  0
  1 36  1  0  0  0  0
 11 37  1  0  0  0  0
 11 38  1  0  0  0  0
 12 39  1  0  0  0  0
 12 40  1  0  0  0  0
 13 41  1  0  0  0  0
 13 42  1  0  0  0  0
 14 43  1  0  0  0  0
 14 44  1  0  0  0  0
 15 45  1  0  0  0  0
 16 46  1  0  0  0  0
 17 47  1  0  0  0  0
 18 48  1  0  0  0  0
 19 49  1  0  0  0  0
 21 50  1  0  0  0  0
 21 51  1  0  0  0  0
 21 52  1  0  0  0  0
 22 53  1  0  0  0  0
 22 54  1  0  0  0  0
 22 55  1  0  0  0  0
 24 56  1  0  0  0  0
 25 57  1  0  0  0  0
 33 58  1  0  0  0  0
 34 59  1  0  0  0  0
M  END
> <SMILES>
C[C@@H]1CN2[C@H]([C@H](C)O1)C1(Cc3cc4c(noc4c(c32)F)N2C[C@H](O)[C@@H](O)C2)C(=O)NC(=O)NC1=O

> <FORMATTED_ID>
H3D-004957

> <MOLFORMULA>
C22H24FN5O7

> <Exact Mass>
489.17

> <XLogP>
-1.33

> <TPSA_NOPS>
157.8

> <s_m_source_file>
ligprep_h3d.sdf

> <i_m_source_file_index>
727

> <i_lp_mmshare_version>
55123

> <i_f3d_flags>
0

> <s_epik_input>
Tz1DMVtOSF1DKD1PKVtOSF1DKD1PKUMxMltDQEBIXTNOKFtDSDJdW0NAQEhdKFtDSDNdKU9bQ0BIXTNbQ0gzXSljNGMoW0NIMl0yKVtjSF1jNWMoYzRGKW9uYzVONltDSDJdW0NASF0oW09IXSlbQ0BASF0oW09IXSlbQ0gyXTY=

> <s_epik_cmdline>
J2VwaWtfcHl0aG9uJywgJy1waHQnLCAnMC41JywgJy1waCcsICc3LjUnLCAnLXRuJywgJzgnLCAnLW1hJywgJzUwMCcsICctaW1hZScsICc8aW5maWxlLm1hZT4nLCAnLW9tYWUnLCAnPG91dGZpbGUubWFlPic=

> <r_lp_tautomer_probability>
1

> <r_epik_Ionization_Penalty>
0.36913

> <r_epik_Ionization_Penalty_Charging>
0

> <r_epik_Ionization_Penalty_Neutral>
0.36913

> <r_epik_State_Penalty>
0.366447

> <r_epik_Charging_Adjusted_Penalty>
0.366447

> <i_epik_Tot_Q>
0

> <i_epik_Tot_abs_Q>
0

> <s_lp_Force_Field>
S-OPLS

> <r_lp_Energy>
44.7706

> <b_lp_Chiralities_Consistent>
1

> <s_lp_Variant>
ligprep_h3d.sdf:727-1

> <ROCS_ShapeQuery>
_7L13

> <ROCS_TanimotoCombo>
0.746 

> <ROCS_ShapeTanimoto>
0.627 

> <ROCS_ColorTanimoto>
0.119 

> <ROCS_RefTversky>
0.770 

> <ROCS_RefColorTversky>
0.295 

> <ROCS_RefTverskyCombo>
1.065 

> <ROCS_FitTversky>
0.771 

> <ROCS_FitColorTversky>
0.166 

> <ROCS_FitTverskyCombo>
0.938 

> <ROCS_ColorScore>
-2.770

> <ROCS_Overlap>
1279.047

> <ROCS_Rank>
519                 

$$$$
ligprep_h3d.sdf:2792_1201
  -OEChem-08212117123D

 74 79  0     1  0  0  0  0  0999 V2000
  -25.3909   -1.3843  -32.9731 C   0  0  0  0  0  0  0  0  0  0  0  0
  -24.4775   -1.9488  -33.8545 C   0  0  0  0  0  0  0  0  0  0  0  0
  -25.6983   -4.8684  -24.4290 C   0  0  0  0  0  0  0  0  0  0  0  0
  -25.2768   -1.6337  -31.6083 C   0  0  0  0  0  0  0  0  0  0  0  0
  -23.4513   -2.7638  -33.3718 C   0  0  0  0  0  0  0  0  0  0  0  0
  -20.1410   -3.7998  -32.6233 C   0  0  0  0  0  0  0  0  0  0  0  0
  -21.5707   -5.7342  -32.8486 C   0  0  0  0  0  0  0  0  0  0  0  0
  -24.6306   -4.8982  -25.3191 C   0  0  0  0  0  0  0  0  0  0  0  0
  -19.2004   -4.3972  -33.4623 C   0  0  0  0  0  0  0  0  0  0  0  0
  -20.6302   -6.3317  -33.6877 C   0  0  0  0  0  0  0  0  0  0  0  0
  -25.4550   -4.4254  -23.1389 C   0  0  0  0  0  0  0  0  0  0  0  0
  -24.2503   -2.4506  -31.1120 C   0  0  0  0  0  0  0  0  0  0  0  0
  -21.3261   -4.4683  -32.3163 C   0  0  0  0  0  0  0  0  0  0  0  0
  -23.3203   -3.0319  -31.9947 C   0  0  0  0  0  0  0  0  0  0  0  0
  -23.3699   -4.4900  -24.8979 C   0  0  0  0  0  0  0  0  0  0  0  0
  -19.4450   -5.6631  -33.9945 C   0  0  0  0  0  0  0  0  0  0  0  0
  -23.2309   -4.0638  -23.5868 C   0  0  0  0  0  0  0  0  0  0  0  0
  -21.2941   -4.8420  -29.4335 C   0  0  0  0  0  0  0  0  0  0  0  0
  -23.2042   -3.6010  -27.7801 C   0  0  0  0  0  0  0  0  0  0  0  0
  -22.1978   -4.0854  -30.0808 C   0  0  0  0  0  0  0  0  0  0  0  0
  -22.2998   -4.3520  -27.1404 C   0  0  0  0  0  0  0  0  0  0  0  0
  -23.2428   -3.4070  -29.2497 C   0  0  0  0  0  0  0  0  0  0  0  0
  -21.2678   -5.0351  -27.9644 C   0  0  0  0  0  0  0  0  0  0  0  0
  -18.9454   -7.7880  -27.6198 C   0  0  0  0  0  0  0  0  0  0  0  0
  -18.1391   -5.5240  -28.4663 C   0  0  0  0  0  0  0  0  0  0  0  0
  -18.0866   -7.6181  -26.3620 C   0  0  0  0  0  0  0  0  0  0  0  0
  -17.2848   -5.3624  -27.2044 C   0  0  0  0  0  0  0  0  0  0  0  0
  -19.3311   -6.4622  -28.2765 C   0  0  2  0  0  0  0  0  0  0  0  0
  -16.8843   -6.7005  -26.5835 C   0  0  2  0  0  0  0  0  0  0  0  0
  -21.9360   -3.2301  -21.7746 C   0  0  0  0  0  0  0  0  0  0  0  0
  -15.1275   -8.2629  -26.6515 C   0  0  0  0  0  0  0  0  0  0  0  0
  -18.6265   -6.0096  -36.2132 C   0  0  0  0  0  0  0  0  0  0  0  0
  -24.2445   -4.0209  -22.6933 N   0  0  0  0  0  0  0  0  0  0  0  0
  -24.1883   -2.6556  -29.7270 N   0  0  0  0  0  0  0  0  0  0  0  0
  -22.2751   -3.8655  -31.4697 N   0  0  0  0  0  0  0  0  0  0  0  0
  -22.2877   -4.5139  -25.7826 N   0  0  0  0  0  0  0  0  0  0  0  0
  -20.3537   -5.7859  -27.4568 N   0  3  0  0  0  0  0  0  0  0  0  0
  -18.5272   -6.2461  -34.8133 O   0  0  0  0  0  0  0  0  0  0  0  0
  -22.0045   -3.6542  -23.1304 O   0  0  0  0  0  0  0  0  0  0  0  0
  -15.9153   -7.3508  -27.4030 O   0  0  0  0  0  0  0  0  0  0  0  0
  -19.1636   -4.7968  -36.4640 F   0  0  0  0  0  0  0  0  0  0  0  0
  -19.4382   -6.9450  -36.7565 F   0  0  0  0  0  0  0  0  0  0  0  0
  -17.4196   -6.1095  -36.8097 F   0  0  0  0  0  0  0  0  0  0  0  0
  -26.1893   -0.7499  -33.3465 H   0  0  0  0  0  0  0  0  0  0  0  0
  -24.5608   -1.7567  -34.9203 H   0  0  0  0  0  0  0  0  0  0  0  0
  -26.6894   -5.1827  -24.7353 H   0  0  0  0  0  0  0  0  0  0  0  0
  -25.9954   -1.1853  -30.9262 H   0  0  0  0  0  0  0  0  0  0  0  0
  -22.7574   -3.1858  -34.0946 H   0  0  0  0  0  0  0  0  0  0  0  0
  -19.9402   -2.8129  -32.2140 H   0  0  0  0  0  0  0  0  0  0  0  0
  -22.4909   -6.2641  -32.6160 H   0  0  0  0  0  0  0  0  0  0  0  0
  -24.7918   -5.2414  -26.3375 H   0  0  0  0  0  0  0  0  0  0  0  0
  -18.2790   -3.8715  -33.6977 H   0  0  0  0  0  0  0  0  0  0  0  0
  -20.8263   -7.3180  -34.0992 H   0  0  0  0  0  0  0  0  0  0  0  0
  -26.2537   -4.3860  -22.4055 H   0  0  0  0  0  0  0  0  0  0  0  0
  -20.5168   -5.3599  -29.9907 H   0  0  0  0  0  0  0  0  0  0  0  0
  -23.9768   -3.0857  -27.2141 H   0  0  0  0  0  0  0  0  0  0  0  0
  -18.4029   -8.4289  -28.3423 H   0  0  0  0  0  0  0  0  0  0  0  0
  -19.8546   -8.3634  -27.3519 H   0  0  0  0  0  0  0  0  0  0  0  0
  -18.4858   -4.5215  -28.7885 H   0  0  0  0  0  0  0  0  0  0  0  0
  -17.4967   -5.8850  -29.2929 H   0  0  0  0  0  0  0  0  0  0  0  0
  -18.7048   -7.2268  -25.5388 H   0  0  0  0  0  0  0  0  0  0  0  0
  -17.7404   -8.6055  -26.0151 H   0  0  0  0  0  0  0  0  0  0  0  0
  -16.3803   -4.7791  -27.4424 H   0  0  0  0  0  0  0  0  0  0  0  0
  -17.8289   -4.7561  -26.4632 H   0  0  0  0  0  0  0  0  0  0  0  0
  -19.8051   -6.6583  -29.2588 H   0  0  0  0  0  0  0  0  0  0  0  0
  -16.3973   -6.5088  -25.6006 H   0  0  0  0  0  0  0  0  0  0  0  0
  -20.9121   -2.9314  -21.5368 H   0  0  0  0  0  0  0  0  0  0  0  0
  -22.2499   -4.0472  -21.1200 H   0  0  0  0  0  0  0  0  0  0  0  0
  -22.6039   -2.3768  -21.6348 H   0  0  0  0  0  0  0  0  0  0  0  0
  -14.3975   -8.7422  -27.3083 H   0  0  0  0  0  0  0  0  0  0  0  0
  -15.7753   -9.0170  -26.1974 H   0  0  0  0  0  0  0  0  0  0  0  0
  -14.6026   -7.7152  -25.8652 H   0  0  0  0  0  0  0  0  0  0  0  0
  -21.3735   -4.6699  -25.3866 H   0  0  0  0  0  0  0  0  0  0  0  0
  -20.3363   -5.9276  -26.4354 H   0  0  0  0  0  0  0  0  0  0  0  0
  1  2  2  0  0  0  0
  1  4  1  0  0  0  0
  2  5  1  0  0  0  0
  3  8  1  0  0  0  0
  3 11  2  0  0  0  0
  4 12  2  0  0  0  0
  5 14  2  0  0  0  0
  6  9  1  0  0  0  0
  6 13  2  0  0  0  0
  7 10  2  0  0  0  0
  7 13  1  0  0  0  0
  8 15  2  0  0  0  0
  9 16  2  0  0  0  0
 10 16  1  0  0  0  0
 11 33  1  0  0  0  0
 12 14  1  0  0  0  0
 12 34  1  0  0  0  0
 13 35  1  0  0  0  0
 14 35  1  0  0  0  0
 15 17  1  0  0  0  0
 15 36  1  0  0  0  0
 16 38  1  0  0  0  0
 17 33  2  0  0  0  0
 17 39  1  0  0  0  0
 18 20  2  0  0  0  0
 18 23  1  0  0  0  0
 19 21  2  0  0  0  0
 19 22  1  0  0  0  0
 20 22  1  0  0  0  0
 20 35  1  0  0  0  0
 21 23  1  0  0  0  0
 21 36  1  0  0  0  0
 22 34  2  0  0  0  0
 23 37  2  0  0  0  0
 24 26  1  0  0  0  0
 24 28  1  0  0  0  0
 25 27  1  0  0  0  0
 25 28  1  0  0  0  0
 26 29  1  0  0  0  0
 27 29  1  0  0  0  0
 28 37  1  0  0  0  0
 29 40  1  0  0  0  0
 30 39  1  0  0  0  0
 31 40  1  0  0  0  0
 32 38  1  0  0  0  0
 32 41  1  0  0  0  0
 32 42  1  0  0  0  0
 32 43  1  0  0  0  0
  1 44  1  0  0  0  0
  2 45  1  0  0  0  0
  3 46  1  0  0  0  0
  4 47  1  0  0  0  0
  5 48  1  0  0  0  0
  6 49  1  0  0  0  0
  7 50  1  0  0  0  0
  8 51  1  0  0  0  0
  9 52  1  0  0  0  0
 10 53  1  0  0  0  0
 11 54  1  0  0  0  0
 18 55  1  0  0  0  0
 19 56  1  0  0  0  0
 24 57  1  0  0  0  0
 24 58  1  0  0  0  0
 25 59  1  0  0  0  0
 25 60  1  0  0  0  0
 26 61  1  0  0  0  0
 26 62  1  0  0  0  0
 27 63  1  0  0  0  0
 27 64  1  0  0  0  0
 28 65  1  0  0  0  0
 29 66  1  0  0  0  0
 30 67  1  0  0  0  0
 30 68  1  0  0  0  0
 30 69  1  0  0  0  0
 31 70  1  0  0  0  0
 31 71  1  0  0  0  0
 31 72  1  0  0  0  0
 36 73  1  0  0  0  0
 37 74  1  0  0  0  0
M  CHG  1  37   1
M  END
> <SMILES>
COC1CCC(CC1)/N=C/1\C=C2N(c3ccc(cc3)OC(F)(F)F)c3ccccc3N=C2C=C1Nc1cccnc1OC

> <FORMATTED_ID>
H3D-008747

> <MOLFORMULA>
C32H30F3N5O3

> <Exact Mass>
589.23

> <XLogP>
6.43

> <TPSA_NOPS>
80.6

> <s_m_source_file>
ligprep_h3d.sdf

> <i_m_source_file_index>
2792

> <i_lp_mmshare_version>
55123

> <i_f3d_flags>
0

> <s_epik_input>
W0NIM11PYzFuW2NIXVtjSF1bY0hdYzFbTkhdYyhjKFxbY0hdMik9TlxbQ0BASF0oW0NIMl1bQ0gyXTMpW0NIMl1bQ0gyXVtDQEhdM09bQ0gzXSlbY0hdYyhjMjQpbmM1YyhbY0hdW2NIXVtjSF1bY0hdNSluNC1jNltjSF1bY0hdYyhbY0hdW2NIXTYpT0MoRikoRilG

> <s_epik_cmdline>
J2VwaWtfcHl0aG9uJywgJy1waHQnLCAnMC41JywgJy1waCcsICc3LjUnLCAnLXRuJywgJzgnLCAnLW1hJywgJzUwMCcsICctaW1hZScsICc8aW5maWxlLm1hZT4nLCAnLW9tYWUnLCAnPG91dGZpbGUubWFlPic=

> <r_lp_tautomer_probability>
1

> <r_epik_Ionization_Penalty>
0.0299109

> <r_epik_Ionization_Penalty_Charging>
0.0298221

> <r_epik_Ionization_Penalty_Neutral>
8.8873e-05

> <r_epik_State_Penalty>
0.013855

> <r_epik_Charging_Adjusted_Penalty>
0.043677

> <i_epik_Tot_Q>
1

> <i_epik_Tot_abs_Q>
1

> <s_epik_Chemistry_Notes>
This compound has an imine and may undergo hydrolysis.

> <s_lp_Force_Field>
S-OPLS

> <r_lp_Energy>
108.641

> <b_lp_Chiralities_Consistent>
1

> <s_lp_Variant>
ligprep_h3d.sdf:2792-1

> <ROCS_ShapeQuery>
_7L13

> <ROCS_TanimotoCombo>
0.647 

> <ROCS_ShapeTanimoto>
0.545 

> <ROCS_ColorTanimoto>
0.101 

> <ROCS_RefTversky>
0.770 

> <ROCS_RefColorTversky>
0.238 

> <ROCS_RefTverskyCombo>
1.008 

> <ROCS_FitTversky>
0.651 

> <ROCS_FitColorTversky>
0.150 

> <ROCS_FitTverskyCombo>
0.802 

> <ROCS_ColorScore>
-2.212

> <ROCS_Overlap>
1292.229

> <ROCS_Rank>
520                 

$$$$
ligprep_h3d.sdf:5504_141
  -OEChem-08212117123D

 61 65  0     0  0  0  0  0  0999 V2000
  -24.7469   -4.2637  -22.7062 C   0  0  0  0  0  0  0  0  0  0  0  0
  -25.7059   -5.0113  -23.4224 C   0  0  0  0  0  0  0  0  0  0  0  0
  -20.1638   -8.4727  -34.3139 C   0  0  0  0  0  0  0  0  0  0  0  0
  -18.8235   -6.1006  -25.6047 C   0  0  0  0  0  0  0  0  0  0  0  0
  -17.6112   -4.0838  -26.1526 C   0  0  0  0  0  0  0  0  0  0  0  0
  -19.9676   -5.3441  -25.3514 C   0  0  0  0  0  0  0  0  0  0  0  0
  -18.7554   -3.3273  -25.8993 C   0  0  0  0  0  0  0  0  0  0  0  0
  -23.5605   -3.8156  -23.3045 C   0  0  0  0  0  0  0  0  0  0  0  0
  -25.5254   -5.3474  -24.7717 C   0  0  0  0  0  0  0  0  0  0  0  0
  -20.4301   -7.3123  -33.5312 C   0  0  0  0  0  0  0  0  0  0  0  0
  -19.7147   -8.1534  -35.5765 C   0  0  0  0  0  0  0  0  0  0  0  0
  -17.6452   -5.4705  -26.0053 C   0  0  0  0  0  0  0  0  0  0  0  0
  -19.9336   -3.9574  -25.4987 C   0  0  0  0  0  0  0  0  0  0  0  0
  -23.3959   -4.1562  -24.6419 C   0  0  0  0  0  0  0  0  0  0  0  0
  -24.3451   -4.8962  -25.3508 C   0  0  0  0  0  0  0  0  0  0  0  0
  -20.1742   -6.1501  -34.2253 C   0  0  0  0  0  0  0  0  0  0  0  0
  -22.6595   -4.4261  -26.7226 C   0  0  0  0  0  0  0  0  0  0  0  0
  -21.1845   -4.0861  -31.5167 C   0  0  0  0  0  0  0  0  0  0  0  0
  -22.3851   -2.8387  -29.7105 C   0  0  0  0  0  0  0  0  0  0  0  0
  -22.6394   -5.3669  -29.9578 C   0  0  0  0  0  0  0  0  0  0  0  0
  -21.4947   -3.0992  -28.4929 C   0  0  0  0  0  0  0  0  0  0  0  0
  -21.7250   -5.5369  -28.7391 C   0  0  0  0  0  0  0  0  0  0  0  0
  -22.4283   -4.0288  -30.6781 C   0  0  0  0  0  0  0  0  0  0  0  0
  -16.4216   -6.2786  -26.2767 C   0  0  0  0  0  0  0  0  0  0  0  0
  -21.1688   -3.1421  -25.2269 C   0  0  0  0  0  0  0  0  0  0  0  0
  -20.3246   -4.7310  -33.7588 C   0  0  0  0  0  0  0  0  0  0  0  0
  -22.3750   -3.8901  -25.5312 N   0  0  0  0  0  0  0  0  0  0  0  0
  -23.8453   -5.0367  -26.6291 N   0  3  0  0  0  0  0  0  0  0  0  0
  -21.8715   -4.3678  -27.8672 N   0  0  0  0  0  0  0  0  0  0  0  0
  -21.3855   -4.5905  -32.7874 N   0  0  0  0  0  0  0  0  0  0  0  0
  -20.1207   -3.6999  -31.0468 O   0  0  0  0  0  0  0  0  0  0  0  0
  -19.6156   -6.4604  -35.8140 S   0  0  0  0  0  0  0  0  0  0  0  0
  -24.9335   -4.0290  -21.6605 H   0  0  0  0  0  0  0  0  0  0  0  0
  -26.6108   -5.3354  -22.9129 H   0  0  0  0  0  0  0  0  0  0  0  0
  -20.2938   -9.4901  -33.9690 H   0  0  0  0  0  0  0  0  0  0  0  0
  -18.8591   -7.1805  -25.4871 H   0  0  0  0  0  0  0  0  0  0  0  0
  -16.6977   -3.5849  -26.4656 H   0  0  0  0  0  0  0  0  0  0  0  0
  -20.8814   -5.8438  -25.0415 H   0  0  0  0  0  0  0  0  0  0  0  0
  -18.7204   -2.2473  -26.0165 H   0  0  0  0  0  0  0  0  0  0  0  0
  -22.8203   -3.2418  -22.7615 H   0  0  0  0  0  0  0  0  0  0  0  0
  -26.2526   -5.9206  -25.3324 H   0  0  0  0  0  0  0  0  0  0  0  0
  -20.7897   -7.3342  -32.5102 H   0  0  0  0  0  0  0  0  0  0  0  0
  -19.4405   -8.8331  -36.3708 H   0  0  0  0  0  0  0  0  0  0  0  0
  -23.4028   -2.6490  -29.3575 H   0  0  0  0  0  0  0  0  0  0  0  0
  -22.0429   -1.9375  -30.2237 H   0  0  0  0  0  0  0  0  0  0  0  0
  -22.4805   -6.2026  -30.6472 H   0  0  0  0  0  0  0  0  0  0  0  0
  -23.6809   -5.4178  -29.6198 H   0  0  0  0  0  0  0  0  0  0  0  0
  -20.4442   -3.1598  -28.7831 H   0  0  0  0  0  0  0  0  0  0  0  0
  -21.6031   -2.2880  -27.7702 H   0  0  0  0  0  0  0  0  0  0  0  0
  -22.0029   -6.4366  -28.1914 H   0  0  0  0  0  0  0  0  0  0  0  0
  -20.6805   -5.6208  -29.0328 H   0  0  0  0  0  0  0  0  0  0  0  0
  -23.2530   -3.8813  -31.3878 H   0  0  0  0  0  0  0  0  0  0  0  0
  -16.3906   -6.5828  -27.3301 H   0  0  0  0  0  0  0  0  0  0  0  0
  -15.5101   -5.7095  -26.0520 H   0  0  0  0  0  0  0  0  0  0  0  0
  -16.3939   -7.1816  -25.6528 H   0  0  0  0  0  0  0  0  0  0  0  0
  -21.2143   -2.8304  -24.1763 H   0  0  0  0  0  0  0  0  0  0  0  0
  -21.1760   -2.2225  -25.8246 H   0  0  0  0  0  0  0  0  0  0  0  0
  -19.3963   -4.3755  -33.2983 H   0  0  0  0  0  0  0  0  0  0  0  0
  -20.5480   -4.0632  -34.5975 H   0  0  0  0  0  0  0  0  0  0  0  0
  -24.3088   -5.5309  -27.3869 H   0  0  0  0  0  0  0  0  0  0  0  0
  -22.3236   -4.8762  -33.0514 H   0  0  0  0  0  0  0  0  0  0  0  0
  1  2  2  0  0  0  0
  1  8  1  0  0  0  0
  2  9  1  0  0  0  0
  3 10  1  0  0  0  0
  3 11  2  0  0  0  0
  4  6  1  0  0  0  0
  4 12  2  0  0  0  0
  5  7  2  0  0  0  0
  5 12  1  0  0  0  0
  6 13  2  0  0  0  0
  7 13  1  0  0  0  0
  8 14  2  0  0  0  0
  9 15  2  0  0  0  0
 10 16  2  0  0  0  0
 11 32  1  0  0  0  0
 12 24  1  0  0  0  0
 13 25  1  0  0  0  0
 14 15  1  0  0  0  0
 14 27  1  0  0  0  0
 15 28  1  0  0  0  0
 16 26  1  0  0  0  0
 16 32  1  0  0  0  0
 17 27  1  0  0  0  0
 17 28  2  0  0  0  0
 17 29  1  0  0  0  0
 18 23  1  0  0  0  0
 18 30  1  0  0  0  0
 18 31  2  0  0  0  0
 19 21  1  0  0  0  0
 19 23  1  0  0  0  0
 20 22  1  0  0  0  0
 20 23  1  0  0  0  0
 21 29  1  0  0  0  0
 22 29  1  0  0  0  0
 25 27  1  0  0  0  0
 26 30  1  0  0  0  0
  1 33  1  0  0  0  0
  2 34  1  0  0  0  0
  3 35  1  0  0  0  0
  4 36  1  0  0  0  0
  5 37  1  0  0  0  0
  6 38  1  0  0  0  0
  7 39  1  0  0  0  0
  8 40  1  0  0  0  0
  9 41  1  0  0  0  0
 10 42  1  0  0  0  0
 11 43  1  0  0  0  0
 19 44  1  0  0  0  0
 19 45  1  0  0  0  0
 20 46  1  0  0  0  0
 20 47  1  0  0  0  0
 21 48  1  0  0  0  0
 21 49  1  0  0  0  0
 22 50  1  0  0  0  0
 22 51  1  0  0  0  0
 23 52  1  0  0  0  0
 24 53  1  0  0  0  0
 24 54  1  0  0  0  0
 24 55  1  0  0  0  0
 25 56  1  0  0  0  0
 25 57  1  0  0  0  0
 26 58  1  0  0  0  0
 26 59  1  0  0  0  0
 28 60  1  0  0  0  0
 30 61  1  0  0  0  0
M  CHG  1  28   1
M  END
> <SMILES>
Cc1ccc(cc1)Cn1c(nc2ccccc12)N1CCC(CC1)C(=O)NCc1cccs1

> <FORMATTED_ID>
H3D-003774

> <MOLFORMULA>
C26H28N4OS

> <Exact Mass>
444.2

> <XLogP>
6.72

> <TPSA_NOPS>
78.4

> <s_m_source_file>
ligprep_h3d.sdf

> <i_m_source_file_index>
5504

> <i_lp_mmshare_version>
55123

> <i_f3d_flags>
0

> <s_epik_input>
W0NIM11jMVtjSF1bY0hdYyhbY0hdW2NIXTEpW0NIMl1uKGMoYzIzKVtjSF1bY0hdW2NIXVtjSF0zKWMobjIpTjRbQ0gyXVtDSDJdW0NIXShbQ0gyXVtDSDJdNClDKD1PKVtOSF1bQ0gyXWM1W2NIXVtjSF1bY0hdczU=

> <s_epik_cmdline>
J2VwaWtfcHl0aG9uJywgJy1waHQnLCAnMC41JywgJy1waCcsICc3LjUnLCAnLXRuJywgJzgnLCAnLW1hJywgJzUwMCcsICctaW1hZScsICc8aW5maWxlLm1hZT4nLCAnLW9tYWUnLCAnPG91dGZpbGUubWFlPic=

> <r_epik_Ionization_Penalty>
0.260916

> <r_epik_Ionization_Penalty_Charging>
0.260916

> <r_epik_Ionization_Penalty_Neutral>
3.46547e-08

> <r_epik_State_Penalty>
0.252643

> <r_epik_Charging_Adjusted_Penalty>
0.513559

> <i_epik_Tot_Q>
1

> <i_epik_Tot_abs_Q>
1

> <s_lp_Force_Field>
S-OPLS

> <r_lp_Energy>
38.2645

> <b_lp_Chiralities_Consistent>
1

> <s_lp_Variant>
ligprep_h3d.sdf:5504-1

> <ROCS_ShapeQuery>
_7L13

> <ROCS_TanimotoCombo>
0.751 

> <ROCS_ShapeTanimoto>
0.689 

> <ROCS_ColorTanimoto>
0.062 

> <ROCS_RefTversky>
0.770 

> <ROCS_RefColorTversky>
0.116 

> <ROCS_RefTverskyCombo>
0.886 

> <ROCS_FitTversky>
0.868 

> <ROCS_FitColorTversky>
0.116 

> <ROCS_FitTverskyCombo>
0.983 

> <ROCS_ColorScore>
-1.044

> <ROCS_Overlap>
1271.141

> <ROCS_Rank>
521                 

$$$$
ligprep_h3d.sdf:4626_617
  -OEChem-08212117123D

 60 64  0     1  0  0  0  0  0999 V2000
  -23.4219   -3.8031  -23.6381 C   0  0  0  0  0  0  0  0  0  0  0  0
  -24.4688   -3.7983  -22.7164 C   0  0  0  0  0  0  0  0  0  0  0  0
  -19.0742   -5.1656  -26.7962 C   0  0  0  0  0  0  0  0  0  0  0  0
  -24.6918   -5.2747  -25.0730 C   0  0  0  0  0  0  0  0  0  0  0  0
  -18.6615   -4.8814  -28.0901 C   0  0  0  0  0  0  0  0  0  0  0  0
  -23.5334   -4.5412  -24.8164 C   0  0  0  0  0  0  0  0  0  0  0  0
  -21.2546   -4.3373  -27.5251 C   0  0  0  0  0  0  0  0  0  0  0  0
  -20.4091   -4.8695  -26.5571 C   0  0  0  0  0  0  0  0  0  0  0  0
  -25.6272   -4.5318  -22.9729 C   0  0  0  0  0  0  0  0  0  0  0  0
  -25.7387   -5.2700  -24.1512 C   0  0  0  0  0  0  0  0  0  0  0  0
  -20.7415   -4.0874  -28.7982 C   0  0  0  0  0  0  0  0  0  0  0  0
  -22.4507   -4.5467  -25.7701 C   0  0  0  0  0  0  0  0  0  0  0  0
  -19.9948   -6.2502  -33.1747 C   0  0  0  0  0  0  0  0  0  0  0  0
  -21.0707   -4.5195  -34.6641 C   0  0  0  0  0  0  0  0  0  0  0  0
  -21.0091   -2.7024  -30.8525 C   0  0  0  0  0  0  0  0  0  0  0  0
  -20.8506   -3.4612  -32.1783 C   0  0  0  0  0  0  0  0  0  0  0  0
  -23.0051   -3.8146  -29.7788 C   0  0  0  0  0  0  0  0  0  0  0  0
  -23.1061   -4.4580  -32.3021 C   0  0  0  0  0  0  0  0  0  0  0  0
  -19.5186   -7.0044  -34.4081 C   0  0  0  0  0  0  0  0  0  0  0  0
  -20.5876   -5.2841  -35.8885 C   0  0  0  0  0  0  0  0  0  0  0  0
  -21.2620   -5.4404  -33.4572 C   0  0  0  0  0  0  0  0  0  0  0  0
  -23.6838   -3.6504  -31.1377 C   0  0  0  0  0  0  0  0  0  0  0  0
  -18.0973   -5.2186  -35.4849 C   0  0  0  0  0  0  0  0  0  0  0  0
  -19.4420   -4.3634  -29.0707 N   0  0  0  0  0  0  0  0  0  0  0  0
  -22.5185   -4.1432  -27.0192 N   0  0  0  0  0  0  0  0  0  0  0  0
  -21.2001   -4.9933  -25.4441 N   0  0  0  0  0  0  0  0  0  0  0  0
  -21.5589   -3.5533  -29.7954 N   0  0  0  0  0  0  0  0  0  0  0  0
  -21.6555   -4.6833  -32.2929 N   0  0  1  0  0  0  0  0  0  0  0  0
  -19.3365   -6.0675  -35.5765 N   0  3  0  0  0  0  0  0  0  0  0  0
  -26.6316   -4.5280  -22.0866 F   0  0  0  0  0  0  0  0  0  0  0  0
  -26.8509   -5.9746  -24.3973 F   0  0  0  0  0  0  0  0  0  0  0  0
  -24.9903   -4.0262  -30.9879 F   0  0  0  0  0  0  0  0  0  0  0  0
  -23.7380   -2.3364  -31.4786 F   0  0  0  0  0  0  0  0  0  0  0  0
  -22.5259   -3.2253  -23.4241 H   0  0  0  0  0  0  0  0  0  0  0  0
  -24.3825   -3.2229  -21.7996 H   0  0  0  0  0  0  0  0  0  0  0  0
  -18.4155   -5.5790  -26.0447 H   0  0  0  0  0  0  0  0  0  0  0  0
  -24.7942   -5.8558  -25.9863 H   0  0  0  0  0  0  0  0  0  0  0  0
  -17.6344   -5.0744  -28.3872 H   0  0  0  0  0  0  0  0  0  0  0  0
  -20.2047   -6.9685  -32.3771 H   0  0  0  0  0  0  0  0  0  0  0  0
  -19.1958   -5.6010  -32.8095 H   0  0  0  0  0  0  0  0  0  0  0  0
  -20.3644   -3.7184  -34.4293 H   0  0  0  0  0  0  0  0  0  0  0  0
  -22.0247   -4.0360  -34.8969 H   0  0  0  0  0  0  0  0  0  0  0  0
  -20.0402   -2.2902  -30.5450 H   0  0  0  0  0  0  0  0  0  0  0  0
  -21.6672   -1.8386  -31.0085 H   0  0  0  0  0  0  0  0  0  0  0  0
  -21.0342   -2.7809  -33.0249 H   0  0  0  0  0  0  0  0  0  0  0  0
  -19.7837   -3.7275  -32.2397 H   0  0  0  0  0  0  0  0  0  0  0  0
  -23.4878   -3.1453  -29.0423 H   0  0  0  0  0  0  0  0  0  0  0  0
  -23.1969   -4.8339  -29.3948 H   0  0  0  0  0  0  0  0  0  0  0  0
  -23.6306   -5.4352  -32.2625 H   0  0  0  0  0  0  0  0  0  0  0  0
  -23.4386   -4.0288  -33.2710 H   0  0  0  0  0  0  0  0  0  0  0  0
  -18.5572   -7.5153  -34.2375 H   0  0  0  0  0  0  0  0  0  0  0  0
  -20.2637   -7.7584  -34.7070 H   0  0  0  0  0  0  0  0  0  0  0  0
  -21.3526   -6.0073  -36.2133 H   0  0  0  0  0  0  0  0  0  0  0  0
  -20.3613   -4.6162  -36.7358 H   0  0  0  0  0  0  0  0  0  0  0  0
  -22.0802   -6.1500  -33.6918 H   0  0  0  0  0  0  0  0  0  0  0  0
  -18.2116   -4.5522  -34.6280 H   0  0  0  0  0  0  0  0  0  0  0  0
  -17.2439   -5.8863  -35.3519 H   0  0  0  0  0  0  0  0  0  0  0  0
  -18.0111   -4.6519  -36.4140 H   0  0  0  0  0  0  0  0  0  0  0  0
  -20.9069   -5.3516  -24.5445 H   0  0  0  0  0  0  0  0  0  0  0  0
  -19.1788   -6.6945  -36.4189 H   0  0  0  0  0  0  0  0  0  0  0  0
  1  2  1  0  0  0  0
  1  6  2  0  0  0  0
  2  9  2  0  0  0  0
  3  5  2  0  0  0  0
  3  8  1  0  0  0  0
  4  6  1  0  0  0  0
  4 10  2  0  0  0  0
  5 24  1  0  0  0  0
  6 12  1  0  0  0  0
  7  8  2  0  0  0  0
  7 11  1  0  0  0  0
  7 25  1  0  0  0  0
  8 26  1  0  0  0  0
  9 10  1  0  0  0  0
  9 30  1  0  0  0  0
 10 31  1  0  0  0  0
 11 24  2  0  0  0  0
 11 27  1  0  0  0  0
 12 25  2  0  0  0  0
 12 26  1  0  0  0  0
 13 19  1  0  0  0  0
 13 21  1  0  0  0  0
 14 20  1  0  0  0  0
 14 21  1  0  0  0  0
 15 16  1  0  0  0  0
 15 27  1  0  0  0  0
 16 28  1  0  0  0  0
 17 22  1  0  0  0  0
 17 27  1  0  0  0  0
 18 22  1  0  0  0  0
 18 28  1  0  0  0  0
 19 29  1  0  0  0  0
 20 29  1  0  0  0  0
 21 28  1  0  0  0  0
 22 32  1  0  0  0  0
 22 33  1  0  0  0  0
 23 29  1  0  0  0  0
  1 34  1  0  0  0  0
  2 35  1  0  0  0  0
  3 36  1  0  0  0  0
  4 37  1  0  0  0  0
  5 38  1  0  0  0  0
 13 39  1  0  0  0  0
 13 40  1  0  0  0  0
 14 41  1  0  0  0  0
 14 42  1  0  0  0  0
 15 43  1  0  0  0  0
 15 44  1  0  0  0  0
 16 45  1  0  0  0  0
 16 46  1  0  0  0  0
 17 47  1  0  0  0  0
 17 48  1  0  0  0  0
 18 49  1  0  0  0  0
 18 50  1  0  0  0  0
 19 51  1  0  0  0  0
 19 52  1  0  0  0  0
 20 53  1  0  0  0  0
 20 54  1  0  0  0  0
 21 55  1  0  0  0  0
 23 56  1  0  0  0  0
 23 57  1  0  0  0  0
 23 58  1  0  0  0  0
 26 59  1  0  0  0  0
 29 60  1  0  0  0  0
M  CHG  1  29   1
M  END
> <SMILES>
CN1CCC(CC1)N1CCN(CC(F)(F)C1)c1nccc2[nH]c(nc12)-c1ccc(c(c1)F)F

> <FORMATTED_ID>
H3D-005900

> <MOLFORMULA>
C23H26F4N6

> <Exact Mass>
462.22

> <XLogP>
4.09

> <TPSA_NOPS>
51.3

> <s_m_source_file>
ligprep_h3d.sdf

> <i_m_source_file_index>
4626

> <i_lp_mmshare_version>
55123

> <i_f3d_flags>
0

> <s_epik_input>
W0NIM11OMVtDSDJdW0NIMl1bQ0hdKFtDSDJdW0NIMl0xKU4oW0NIMl0yKVtDSDJdW0NIMl1OKFtDSDJdQzIoRilGKWMobltjSF1bY0hdMyljKGMzNCluYyhbbkhdNCktYzVbY0hdW2NIXWMoRiljKEYpW2NIXTU=

> <s_epik_cmdline>
J2VwaWtfcHl0aG9uJywgJy1waHQnLCAnMC41JywgJy1waCcsICc3LjUnLCAnLXRuJywgJzgnLCAnLW1hJywgJzUwMCcsICctaW1hZScsICc8aW5maWxlLm1hZT4nLCAnLW9tYWUnLCAnPG91dGZpbGUubWFlPic=

> <r_lp_tautomer_probability>
0.742559

> <r_epik_Ionization_Penalty>
0.507404

> <r_epik_Ionization_Penalty_Charging>
0.505291

> <r_epik_Ionization_Penalty_Neutral>
0.00211312

> <r_epik_State_Penalty>
0.509389

> <r_epik_Charging_Adjusted_Penalty>
1.01468

> <i_epik_Tot_Q>
1

> <i_epik_Tot_abs_Q>
1

> <s_lp_Force_Field>
S-OPLS

> <r_lp_Energy>
73.6876

> <b_lp_Chiralities_Consistent>
1

> <s_lp_Variant>
ligprep_h3d.sdf:4626-2

> <ROCS_ShapeQuery>
_7L13

> <ROCS_TanimotoCombo>
0.886 

> <ROCS_ShapeTanimoto>
0.662 

> <ROCS_ColorTanimoto>
0.224 

> <ROCS_RefTversky>
0.770 

> <ROCS_RefColorTversky>
0.403 

> <ROCS_RefTverskyCombo>
1.173 

> <ROCS_FitTversky>
0.825 

> <ROCS_FitColorTversky>
0.335 

> <ROCS_FitTverskyCombo>
1.161 

> <ROCS_ColorScore>
-3.663

> <ROCS_Overlap>
1274.263

> <ROCS_Rank>
522                 

$$$$
ligprep_h3d.sdf:5047_1782
  -OEChem-08212117123D

 64 68  0     0  0  0  0  0  0999 V2000
  -19.3107   -5.5133  -34.8030 C   0  0  0  0  0  0  0  0  0  0  0  0
  -20.3388   -6.4089  -34.5091 C   0  0  0  0  0  0  0  0  0  0  0  0
  -19.1906   -4.3272  -34.0787 C   0  0  0  0  0  0  0  0  0  0  0  0
  -21.2470   -6.1185  -33.4910 C   0  0  0  0  0  0  0  0  0  0  0  0
  -20.0988   -4.0368  -33.0607 C   0  0  0  0  0  0  0  0  0  0  0  0
  -18.8316   -6.4714  -25.4070 C   0  0  0  0  0  0  0  0  0  0  0  0
  -23.6415   -3.8663  -27.7377 C   0  0  0  0  0  0  0  0  0  0  0  0
  -20.9648   -4.4086  -28.4224 C   0  0  0  0  0  0  0  0  0  0  0  0
  -18.3704   -4.1728  -25.9441 C   0  0  0  0  0  0  0  0  0  0  0  0
  -17.4704   -6.6432  -25.2139 C   0  0  0  0  0  0  0  0  0  0  0  0
  -22.7307   -4.3002  -26.7819 C   0  0  0  0  0  0  0  0  0  0  0  0
  -21.1270   -4.9324  -32.7668 C   0  0  0  0  0  0  0  0  0  0  0  0
  -19.2820   -5.2096  -25.7789 C   0  0  0  0  0  0  0  0  0  0  0  0
  -21.3909   -4.5565  -27.1083 C   0  0  0  0  0  0  0  0  0  0  0  0
  -23.2056   -3.7062  -29.0514 C   0  0  0  0  0  0  0  0  0  0  0  0
  -21.8764   -3.9799  -29.3923 C   0  0  0  0  0  0  0  0  0  0  0  0
  -17.0298   -4.4475  -25.7267 C   0  0  0  0  0  0  0  0  0  0  0  0
  -23.0502   -3.1770  -24.5679 C   0  0  0  0  0  0  0  0  0  0  0  0
  -24.2059   -5.3791  -25.0157 C   0  0  0  0  0  0  0  0  0  0  0  0
  -21.6466   -5.2986  -24.9471 C   0  0  0  0  0  0  0  0  0  0  0  0
  -23.3601   -3.3244  -23.0816 C   0  0  0  0  0  0  0  0  0  0  0  0
  -24.4642   -5.5340  -23.5226 C   0  0  0  0  0  0  0  0  0  0  0  0
  -22.9575   -4.5285  -25.3073 C   0  0  0  0  0  0  0  0  0  0  0  0
  -24.9987   -4.2545  -21.4514 C   0  0  0  0  0  0  0  0  0  0  0  0
  -24.1942   -1.8749  -30.2024 C   0  0  0  0  0  0  0  0  0  0  0  0
  -22.1037   -4.6192  -31.6716 C   0  0  0  0  0  0  0  0  0  0  0  0
  -16.0230   -3.3588  -25.8952 C   0  0  0  0  0  0  0  0  0  0  0  0
  -16.5546   -5.6602  -25.3647 N   0  0  0  0  0  0  0  0  0  0  0  0
  -20.6463   -4.9850  -25.9861 N   0  0  0  0  0  0  0  0  0  0  0  0
  -24.5979   -4.1663  -22.8986 N   0  3  0  0  0  0  0  0  0  0  0  0
  -24.0874   -3.2824  -30.0003 O   0  0  0  0  0  0  0  0  0  0  0  0
  -21.4531   -3.8284  -30.6799 O   0  0  0  0  0  0  0  0  0  0  0  0
  -16.5687   -2.1617  -26.2616 F   0  0  0  0  0  0  0  0  0  0  0  0
  -15.3107   -3.0938  -24.7607 F   0  0  0  0  0  0  0  0  0  0  0  0
  -15.0945   -3.6471  -26.8526 F   0  0  0  0  0  0  0  0  0  0  0  0
  -18.6028   -5.7403  -35.5948 H   0  0  0  0  0  0  0  0  0  0  0  0
  -20.4318   -7.3330  -35.0722 H   0  0  0  0  0  0  0  0  0  0  0  0
  -18.3896   -3.6302  -34.3065 H   0  0  0  0  0  0  0  0  0  0  0  0
  -22.0450   -6.8221  -33.2691 H   0  0  0  0  0  0  0  0  0  0  0  0
  -19.9976   -3.1102  -32.5018 H   0  0  0  0  0  0  0  0  0  0  0  0
  -19.5160   -7.3018  -25.2696 H   0  0  0  0  0  0  0  0  0  0  0  0
  -24.6708   -3.6504  -27.4697 H   0  0  0  0  0  0  0  0  0  0  0  0
  -19.9350   -4.6164  -28.6986 H   0  0  0  0  0  0  0  0  0  0  0  0
  -18.6985   -3.1798  -26.2349 H   0  0  0  0  0  0  0  0  0  0  0  0
  -17.0684   -7.6084  -24.9240 H   0  0  0  0  0  0  0  0  0  0  0  0
  -23.8349   -2.5586  -25.0255 H   0  0  0  0  0  0  0  0  0  0  0  0
  -22.1177   -2.6089  -24.6817 H   0  0  0  0  0  0  0  0  0  0  0  0
  -24.1122   -6.3726  -25.4728 H   0  0  0  0  0  0  0  0  0  0  0  0
  -25.0928   -4.9230  -25.4752 H   0  0  0  0  0  0  0  0  0  0  0  0
  -21.2653   -5.0363  -23.9542 H   0  0  0  0  0  0  0  0  0  0  0  0
  -21.8230   -6.3836  -24.9522 H   0  0  0  0  0  0  0  0  0  0  0  0
  -22.5458   -3.8061  -22.5309 H   0  0  0  0  0  0  0  0  0  0  0  0
  -23.5625   -2.3444  -22.6364 H   0  0  0  0  0  0  0  0  0  0  0  0
  -25.4061   -6.0657  -23.3512 H   0  0  0  0  0  0  0  0  0  0  0  0
  -23.6512   -6.0594  -23.0101 H   0  0  0  0  0  0  0  0  0  0  0  0
  -24.1967   -4.7631  -20.9133 H   0  0  0  0  0  0  0  0  0  0  0  0
  -25.1369   -3.2372  -21.0804 H   0  0  0  0  0  0  0  0  0  0  0  0
  -25.9295   -4.8223  -21.3966 H   0  0  0  0  0  0  0  0  0  0  0  0
  -24.9301   -1.6732  -30.9845 H   0  0  0  0  0  0  0  0  0  0  0  0
  -23.2200   -1.4724  -30.4913 H   0  0  0  0  0  0  0  0  0  0  0  0
  -24.5183   -1.4055  -29.2705 H   0  0  0  0  0  0  0  0  0  0  0  0
  -22.9650   -4.0658  -32.0612 H   0  0  0  0  0  0  0  0  0  0  0  0
  -22.4764   -5.5397  -31.2095 H   0  0  0  0  0  0  0  0  0  0  0  0
  -25.3678   -3.6845  -23.3831 H   0  0  0  0  0  0  0  0  0  0  0  0
  1  2  2  0  0  0  0
  1  3  1  0  0  0  0
  2  4  1  0  0  0  0
  3  5  2  0  0  0  0
  4 12  2  0  0  0  0
  5 12  1  0  0  0  0
  6 10  1  0  0  0  0
  6 13  2  0  0  0  0
  7 11  1  0  0  0  0
  7 15  2  0  0  0  0
  8 14  1  0  0  0  0
  8 16  2  0  0  0  0
  9 13  1  0  0  0  0
  9 17  2  0  0  0  0
 10 28  2  0  0  0  0
 11 14  2  0  0  0  0
 11 23  1  0  0  0  0
 12 26  1  0  0  0  0
 13 29  1  0  0  0  0
 14 29  1  0  0  0  0
 15 16  1  0  0  0  0
 15 31  1  0  0  0  0
 16 32  1  0  0  0  0
 17 27  1  0  0  0  0
 17 28  1  0  0  0  0
 18 21  1  0  0  0  0
 18 23  1  0  0  0  0
 19 22  1  0  0  0  0
 19 23  1  0  0  0  0
 20 23  1  0  0  0  0
 20 29  1  0  0  0  0
 21 30  1  0  0  0  0
 22 30  1  0  0  0  0
 24 30  1  0  0  0  0
 25 31  1  0  0  0  0
 26 32  1  0  0  0  0
 27 33  1  0  0  0  0
 27 34  1  0  0  0  0
 27 35  1  0  0  0  0
  1 36  1  0  0  0  0
  2 37  1  0  0  0  0
  3 38  1  0  0  0  0
  4 39  1  0  0  0  0
  5 40  1  0  0  0  0
  6 41  1  0  0  0  0
  7 42  1  0  0  0  0
  8 43  1  0  0  0  0
  9 44  1  0  0  0  0
 10 45  1  0  0  0  0
 18 46  1  0  0  0  0
 18 47  1  0  0  0  0
 19 48  1  0  0  0  0
 19 49  1  0  0  0  0
 20 50  1  0  0  0  0
 20 51  1  0  0  0  0
 21 52  1  0  0  0  0
 21 53  1  0  0  0  0
 22 54  1  0  0  0  0
 22 55  1  0  0  0  0
 24 56  1  0  0  0  0
 24 57  1  0  0  0  0
 24 58  1  0  0  0  0
 25 59  1  0  0  0  0
 25 60  1  0  0  0  0
 25 61  1  0  0  0  0
 26 62  1  0  0  0  0
 26 63  1  0  0  0  0
 30 64  1  0  0  0  0
M  CHG  1  30   1
M  END
> <SMILES>
COc1cc2c(cc1OCc1ccccc1)N(CC12CCN(C)CC1)c1ccnc(c1)C(F)(F)F

> <FORMATTED_ID>
H3D-009376

> <MOLFORMULA>
C27H28F3N3O2

> <Exact Mass>
483.21

> <XLogP>
5.81

> <TPSA_NOPS>
37.8

> <s_m_source_file>
ligprep_h3d.sdf

> <i_m_source_file_index>
5047

> <i_lp_mmshare_version>
55123

> <i_f3d_flags>
0

> <s_epik_input>
W2NIXTFbY0hdW2NIXVtjSF1bY0hdYzFbQ0gyXU9jKGMoW2NIXTIpT1tDSDNdKVtjSF1jKGMyQzM0W0NIMl1bQ0gyXU4oW0NIM10pW0NIMl1bQ0gyXTQpTihbQ0gyXTMpYzVbY0hdW2NIXW5jKFtjSF01KUMoRikoRilG

> <s_epik_cmdline>
J2VwaWtfcHl0aG9uJywgJy1waHQnLCAnMC41JywgJy1waCcsICc3LjUnLCAnLXRuJywgJzgnLCAnLW1hJywgJzUwMCcsICctaW1hZScsICc8aW5maWxlLm1hZT4nLCAnLW9tYWUnLCAnPG91dGZpbGUubWFlPic=

> <r_lp_tautomer_probability>
1

> <r_epik_Ionization_Penalty>
0.00689915

> <r_epik_Ionization_Penalty_Charging>
0.00689193

> <r_epik_Ionization_Penalty_Neutral>
7.21723e-06

> <r_epik_State_Penalty>
-0

> <r_epik_Charging_Adjusted_Penalty>
0.00689193

> <i_epik_Tot_Q>
1

> <i_epik_Tot_abs_Q>
1

> <s_lp_Force_Field>
S-OPLS

> <r_lp_Energy>
72.2022

> <b_lp_Chiralities_Consistent>
1

> <s_lp_Variant>
ligprep_h3d.sdf:5047-1

> <ROCS_ShapeQuery>
_7L13

> <ROCS_TanimotoCombo>
0.748 

> <ROCS_ShapeTanimoto>
0.640 

> <ROCS_ColorTanimoto>
0.109 

> <ROCS_RefTversky>
0.770 

> <ROCS_RefColorTversky>
0.206 

> <ROCS_RefTverskyCombo>
0.976 

> <ROCS_FitTversky>
0.791 

> <ROCS_FitColorTversky>
0.187 

> <ROCS_FitTverskyCombo>
0.978 

> <ROCS_ColorScore>
-1.864

> <ROCS_Overlap>
1277.148

> <ROCS_Rank>
523                 

$$$$
ligprep_h3d.sdf:691_25
  -OEChem-08212117123D

 58 63  0     1  0  0  0  0  0999 V2000
  -20.9818   -5.1398  -29.5082 C   0  0  0  0  0  0  0  0  0  0  0  0
  -21.7531   -4.3769  -30.3876 C   0  0  0  0  0  0  0  0  0  0  0  0
  -21.0950   -4.8973  -28.1181 C   0  0  0  0  0  0  0  0  0  0  0  0
  -21.9885   -3.9393  -27.5831 C   0  0  0  0  0  0  0  0  0  0  0  0
  -22.5964   -3.4225  -29.8623 C   0  0  0  0  0  0  0  0  0  0  0  0
  -22.7439   -3.1690  -28.4984 C   0  0  0  0  0  0  0  0  0  0  0  0
  -21.9483   -4.2686  -31.7771 C   0  0  0  0  0  0  0  0  0  0  0  0
  -18.9035   -3.7992  -26.2454 C   0  0  0  0  0  0  0  0  0  0  0  0
  -19.2216   -6.0109  -25.0172 C   0  0  0  0  0  0  0  0  0  0  0  0
  -17.0486   -5.1318  -25.8401 C   0  0  0  0  0  0  0  0  0  0  0  0
  -20.2386   -5.7223  -27.1951 C   0  0  0  0  0  0  0  0  0  0  0  0
  -21.3546   -6.5248  -32.6962 C   0  0  0  0  0  0  0  0  0  0  0  0
  -20.3857   -4.5567  -33.7170 C   0  0  0  0  0  0  0  0  0  0  0  0
  -23.0628   -2.8071  -25.6474 C   0  0  0  0  0  0  0  0  0  0  0  0
  -21.1992   -4.4588  -25.2396 C   0  0  2  0  0  0  0  0  0  0  0  0
  -20.2309   -6.9440  -33.6413 C   0  0  2  0  0  0  0  0  0  0  0  0
  -20.1248   -5.7700  -34.6058 C   0  0  2  0  0  0  0  0  0  0  0  0
  -23.4281   -3.1276  -24.1951 C   0  0  1  0  0  0  0  0  0  0  0  0
  -21.0477   -3.5215  -24.0056 C   0  0  2  0  0  0  0  0  0  0  0  0
  -19.8714   -4.9553  -25.9007 C   0  0  2  0  0  0  0  0  0  0  0  0
  -24.4021   -4.2986  -24.0791 C   0  0  0  0  0  0  0  0  0  0  0  0
  -20.0823   -3.9827  -22.9210 C   0  0  0  0  0  0  0  0  0  0  0  0
  -22.8383   -3.3226  -32.0917 N   0  0  0  0  0  0  0  0  0  0  0  0
  -17.6390   -4.1375  -26.5044 N   0  5  0  0  0  0  0  0  0  0  0  0
  -17.8423   -5.9856  -25.0763 N   0  0  0  0  0  0  0  0  0  0  0  0
  -22.0969   -3.7642  -26.2013 N   0  0  3  0  0  0  0  0  0  0  0  0
  -21.2717   -5.0672  -32.6747 N   0  0  0  0  0  0  0  0  0  0  0  0
  -19.3222   -2.6499  -26.3825 O   0  0  0  0  0  0  0  0  0  0  0  0
  -19.8486   -6.8520  -24.3770 O   0  0  0  0  0  0  0  0  0  0  0  0
  -15.8332   -5.3400  -25.8876 O   0  0  0  0  0  0  0  0  0  0  0  0
  -23.2458   -2.7867  -30.8756 O   0  0  0  0  0  0  0  0  0  0  0  0
  -22.3128   -3.3808  -23.3457 O   0  0  0  0  0  0  0  0  0  0  0  0
  -20.5610   -8.1277  -34.3453 O   0  0  0  0  0  0  0  0  0  0  0  0
  -18.8324   -5.6991  -35.1810 O   0  0  0  0  0  0  0  0  0  0  0  0
  -23.5174   -2.1406  -28.1308 F   0  0  0  0  0  0  0  0  0  0  0  0
  -20.3007   -5.8981  -29.8836 H   0  0  0  0  0  0  0  0  0  0  0  0
  -20.7932   -6.6409  -26.9593 H   0  0  0  0  0  0  0  0  0  0  0  0
  -19.3262   -6.0364  -27.7190 H   0  0  0  0  0  0  0  0  0  0  0  0
  -22.3376   -6.8641  -33.0446 H   0  0  0  0  0  0  0  0  0  0  0  0
  -21.1745   -6.9075  -31.6840 H   0  0  0  0  0  0  0  0  0  0  0  0
  -19.4609   -4.1488  -33.2912 H   0  0  0  0  0  0  0  0  0  0  0  0
  -20.9077   -3.7696  -34.2753 H   0  0  0  0  0  0  0  0  0  0  0  0
  -23.9743   -2.8571  -26.2779 H   0  0  0  0  0  0  0  0  0  0  0  0
  -22.7593   -1.7494  -25.6887 H   0  0  0  0  0  0  0  0  0  0  0  0
  -21.7665   -5.3428  -24.9068 H   0  0  0  0  0  0  0  0  0  0  0  0
  -19.2913   -7.1141  -33.0820 H   0  0  0  0  0  0  0  0  0  0  0  0
  -20.8727   -5.8224  -35.4208 H   0  0  0  0  0  0  0  0  0  0  0  0
  -23.9828   -2.2268  -23.7570 H   0  0  0  0  0  0  0  0  0  0  0  0
  -20.7254   -2.5108  -24.3145 H   0  0  0  0  0  0  0  0  0  0  0  0
  -23.9457   -5.2044  -24.4787 H   0  0  0  0  0  0  0  0  0  0  0  0
  -25.3118   -4.0842  -24.6402 H   0  0  0  0  0  0  0  0  0  0  0  0
  -24.6623   -4.4653  -23.0337 H   0  0  0  0  0  0  0  0  0  0  0  0
  -20.3558   -4.9805  -22.5780 H   0  0  0  0  0  0  0  0  0  0  0  0
  -20.1165   -3.2962  -22.0750 H   0  0  0  0  0  0  0  0  0  0  0  0
  -19.0657   -4.0099  -23.3137 H   0  0  0  0  0  0  0  0  0  0  0  0
  -17.3525   -6.6635  -24.5001 H   0  0  0  0  0  0  0  0  0  0  0  0
  -20.7067   -8.8177  -33.6784 H   0  0  0  0  0  0  0  0  0  0  0  0
  -18.8056   -4.8842  -35.7076 H   0  0  0  0  0  0  0  0  0  0  0  0
  1  2  2  0  0  0  0
  1  3  1  0  0  0  0
  2  5  1  0  0  0  0
  2  7  1  0  0  0  0
  3  4  2  0  0  0  0
  3 11  1  0  0  0  0
  4  6  1  0  0  0  0
  4 26  1  0  0  0  0
  5  6  2  0  0  0  0
  5 31  1  0  0  0  0
  6 35  1  0  0  0  0
  7 23  2  0  0  0  0
  7 27  1  0  0  0  0
  8 20  1  0  0  0  0
  8 24  1  0  0  0  0
  8 28  2  0  0  0  0
  9 20  1  0  0  0  0
  9 25  1  0  0  0  0
  9 29  2  0  0  0  0
 10 24  1  0  0  0  0
 10 25  1  0  0  0  0
 10 30  2  0  0  0  0
 11 20  1  0  0  0  0
 12 16  1  0  0  0  0
 12 27  1  0  0  0  0
 13 17  1  0  0  0  0
 13 27  1  0  0  0  0
 14 18  1  0  0  0  0
 14 26  1  0  0  0  0
 15 19  1  0  0  0  0
 15 20  1  0  0  0  0
 15 26  1  0  0  0  0
 16 17  1  0  0  0  0
 16 33  1  0  0  0  0
 17 34  1  0  0  0  0
 18 21  1  0  0  0  0
 18 32  1  0  0  0  0
 19 22  1  0  0  0  0
 19 32  1  0  0  0  0
 23 31  1  0  0  0  0
  1 36  1  0  0  0  0
 11 37  1  0  0  0  0
 11 38  1  0  0  0  0
 12 39  1  0  0  0  0
 12 40  1  0  0  0  0
 13 41  1  0  0  0  0
 13 42  1  0  0  0  0
 14 43  1  0  0  0  0
 14 44  1  0  0  0  0
 15 45  1  0  0  0  0
 16 46  1  0  0  0  0
 17 47  1  0  0  0  0
 18 48  1  0  0  0  0
 19 49  1  0  0  0  0
 21 50  1  0  0  0  0
 21 51  1  0  0  0  0
 21 52  1  0  0  0  0
 22 53  1  0  0  0  0
 22 54  1  0  0  0  0
 22 55  1  0  0  0  0
 25 56  1  0  0  0  0
 33 57  1  0  0  0  0
 34 58  1  0  0  0  0
M  CHG  1  24  -1
M  END
> <SMILES>
C[C@@H]1CN2[C@H]([C@H](C)O1)C1(Cc3cc4c(noc4c(c32)F)N2C[C@@H](O)[C@H](O)C2)C(=O)NC(=O)NC1=O

> <FORMATTED_ID>
H3D-004885

> <MOLFORMULA>
C22H24FN5O7

> <Exact Mass>
489.17

> <XLogP>
-1.33

> <TPSA_NOPS>
157.8

> <s_m_source_file>
ligprep_h3d.sdf

> <i_m_source_file_index>
691

> <i_lp_mmshare_version>
55123

> <i_f3d_flags>
0

> <s_epik_input>
Tz1DMVtOSF1DKD1PKVtOSF1DKD1PKUMxMltDQEBIXTNOKFtDSDJdW0NAQEhdKFtDSDNdKU9bQ0BIXTNbQ0gzXSljNGMoW0NIMl0yKVtjSF1jNWMoYzRGKW9uYzVONltDSDJdW0NAQEhdKFtPSF0pW0NASF0oW09IXSlbQ0gyXTY=

> <s_epik_cmdline>
J2VwaWtfcHl0aG9uJywgJy1waHQnLCAnMC41JywgJy1waCcsICc3LjUnLCAnLXRuJywgJzgnLCAnLW1hJywgJzUwMCcsICctaW1hZScsICc8aW5maWxlLm1hZT4nLCAnLW9tYWUnLCAnPG91dGZpbGUubWFlPic=

> <r_lp_tautomer_probability>
1

> <r_epik_Ionization_Penalty>
0.455393

> <r_epik_Ionization_Penalty_Charging>
0.455373

> <r_epik_Ionization_Penalty_Neutral>
2.00145e-05

> <r_epik_State_Penalty>
0.458483

> <r_epik_Charging_Adjusted_Penalty>
0.913857

> <i_epik_Tot_Q>
-1

> <i_epik_Tot_abs_Q>
1

> <s_lp_Force_Field>
S-OPLS

> <r_lp_Energy>
49.8679

> <b_lp_Chiralities_Consistent>
1

> <s_lp_Variant>
ligprep_h3d.sdf:691-2

> <ROCS_ShapeQuery>
_7L13

> <ROCS_TanimotoCombo>
0.739 

> <ROCS_ShapeTanimoto>
0.625 

> <ROCS_ColorTanimoto>
0.114 

> <ROCS_RefTversky>
0.770 

> <ROCS_RefColorTversky>
0.293 

> <ROCS_RefTverskyCombo>
1.063 

> <ROCS_FitTversky>
0.769 

> <ROCS_FitColorTversky>
0.158 

> <ROCS_FitTverskyCombo>
0.926 

> <ROCS_ColorScore>
-2.772

> <ROCS_Overlap>
1279.014

> <ROCS_Rank>
524                 

$$$$
ligprep_h3d.sdf:383_119
  -OEChem-08212117123D

 58 63  0     1  0  0  0  0  0999 V2000
  -20.9924   -5.1484  -29.5053 C   0  0  0  0  0  0  0  0  0  0  0  0
  -21.7577   -4.3798  -30.3849 C   0  0  0  0  0  0  0  0  0  0  0  0
  -21.1034   -4.9042  -28.1153 C   0  0  0  0  0  0  0  0  0  0  0  0
  -21.9891   -3.9388  -27.5807 C   0  0  0  0  0  0  0  0  0  0  0  0
  -22.5931   -3.4184  -29.8601 C   0  0  0  0  0  0  0  0  0  0  0  0
  -22.7383   -3.1629  -28.4963 C   0  0  0  0  0  0  0  0  0  0  0  0
  -21.9522   -4.2707  -31.7745 C   0  0  0  0  0  0  0  0  0  0  0  0
  -18.9028   -3.8228  -26.2436 C   0  0  0  0  0  0  0  0  0  0  0  0
  -19.2386   -6.0312  -25.0140 C   0  0  0  0  0  0  0  0  0  0  0  0
  -17.0587   -5.1702  -25.8378 C   0  0  0  0  0  0  0  0  0  0  0  0
  -20.2536   -5.7356  -27.1920 C   0  0  0  0  0  0  0  0  0  0  0  0
  -19.9781   -4.5924  -33.1846 C   0  0  0  0  0  0  0  0  0  0  0  0
  -21.4479   -6.5450  -32.6111 C   0  0  0  0  0  0  0  0  0  0  0  0
  -23.0538   -2.7968  -25.6454 C   0  0  0  0  0  0  0  0  0  0  0  0
  -19.6888   -5.1230  -34.5815 C   0  0  0  0  0  0  0  0  0  0  0  0
  -21.2366   -7.1947  -33.9724 C   0  0  0  0  0  0  0  0  0  0  0  0
  -21.2036   -4.4633  -25.2370 C   0  0  2  0  0  0  0  0  0  0  0  0
  -23.4216   -3.1135  -24.1929 C   0  0  1  0  0  0  0  0  0  0  0  0
  -21.0444   -3.5266  -24.0035 C   0  0  2  0  0  0  0  0  0  0  0  0
  -19.8800   -4.9709  -25.8981 C   0  0  2  0  0  0  0  0  0  0  0  0
  -24.4049   -4.2766  -24.0761 C   0  0  0  0  0  0  0  0  0  0  0  0
  -20.0825   -3.9949  -22.9189 C   0  0  0  0  0  0  0  0  0  0  0  0
  -22.8346   -3.3177  -32.0895 N   0  0  0  0  0  0  0  0  0  0  0  0
  -17.6412   -4.1715  -26.5025 N   0  5  0  0  0  0  0  0  0  0  0  0
  -17.8592   -6.0171  -25.0734 N   0  0  0  0  0  0  0  0  0  0  0  0
  -22.0959   -3.7620  -26.1990 N   0  0  3  0  0  0  0  0  0  0  0  0
  -21.2715   -5.0883  -32.6863 N   0  0  0  0  0  0  0  0  0  0  0  0
  -19.3123   -2.6703  -26.3812 O   0  0  0  0  0  0  0  0  0  0  0  0
  -19.8723   -6.8668  -24.3733 O   0  0  0  0  0  0  0  0  0  0  0  0
  -15.8451   -5.3883  -25.8853 O   0  0  0  0  0  0  0  0  0  0  0  0
  -19.4754   -7.3993  -35.9837 O   0  0  0  0  0  0  0  0  0  0  0  0
  -23.2376   -2.7778  -30.8737 O   0  0  0  0  0  0  0  0  0  0  0  0
  -22.3082   -3.3753  -23.3435 O   0  0  0  0  0  0  0  0  0  0  0  0
  -23.5035   -2.1280  -28.1292 F   0  0  0  0  0  0  0  0  0  0  0  0
  -19.5371   -6.9344  -34.5589 S   0  0  0  0  0  0  0  0  0  0  0  0
  -20.3175   -5.9124  -29.8804 H   0  0  0  0  0  0  0  0  0  0  0  0
  -20.8156   -6.6496  -26.9556 H   0  0  0  0  0  0  0  0  0  0  0  0
  -19.3439   -6.0574  -27.7159 H   0  0  0  0  0  0  0  0  0  0  0  0
  -19.1840   -4.8812  -32.4839 H   0  0  0  0  0  0  0  0  0  0  0  0
  -19.9876   -3.4955  -33.2280 H   0  0  0  0  0  0  0  0  0  0  0  0
  -22.4628   -6.7850  -32.2685 H   0  0  0  0  0  0  0  0  0  0  0  0
  -20.7510   -6.9575  -31.8701 H   0  0  0  0  0  0  0  0  0  0  0  0
  -23.9659   -2.8397  -26.2758 H   0  0  0  0  0  0  0  0  0  0  0  0
  -22.7418   -1.7416  -25.6874 H   0  0  0  0  0  0  0  0  0  0  0  0
  -20.4702   -4.8346  -35.2925 H   0  0  0  0  0  0  0  0  0  0  0  0
  -18.7367   -4.7243  -34.9449 H   0  0  0  0  0  0  0  0  0  0  0  0
  -21.3915   -8.2760  -33.9002 H   0  0  0  0  0  0  0  0  0  0  0  0
  -21.9383   -6.8029  -34.7166 H   0  0  0  0  0  0  0  0  0  0  0  0
  -21.7781   -5.3425  -24.9036 H   0  0  0  0  0  0  0  0  0  0  0  0
  -23.9688   -2.2080  -23.7552 H   0  0  0  0  0  0  0  0  0  0  0  0
  -20.7139   -2.5187  -24.3131 H   0  0  0  0  0  0  0  0  0  0  0  0
  -23.9559   -5.1863  -24.4752 H   0  0  0  0  0  0  0  0  0  0  0  0
  -25.3130   -4.0551  -24.6372 H   0  0  0  0  0  0  0  0  0  0  0  0
  -24.6663   -4.4406  -23.0306 H   0  0  0  0  0  0  0  0  0  0  0  0
  -20.3641   -4.9904  -22.5752 H   0  0  0  0  0  0  0  0  0  0  0  0
  -20.1110   -3.3077  -22.0732 H   0  0  0  0  0  0  0  0  0  0  0  0
  -19.0663   -4.0306  -23.3117 H   0  0  0  0  0  0  0  0  0  0  0  0
  -17.3748   -6.6986  -24.4969 H   0  0  0  0  0  0  0  0  0  0  0  0
  1  2  2  0  0  0  0
  1  3  1  0  0  0  0
  2  5  1  0  0  0  0
  2  7  1  0  0  0  0
  3  4  2  0  0  0  0
  3 11  1  0  0  0  0
  4  6  1  0  0  0  0
  4 26  1  0  0  0  0
  5  6  2  0  0  0  0
  5 32  1  0  0  0  0
  6 34  1  0  0  0  0
  7 23  2  0  0  0  0
  7 27  1  0  0  0  0
  8 20  1  0  0  0  0
  8 24  1  0  0  0  0
  8 28  2  0  0  0  0
  9 20  1  0  0  0  0
  9 25  1  0  0  0  0
  9 29  2  0  0  0  0
 10 24  1  0  0  0  0
 10 25  1  0  0  0  0
 10 30  2  0  0  0  0
 11 20  1  0  0  0  0
 12 15  1  0  0  0  0
 12 27  1  0  0  0  0
 13 16  1  0  0  0  0
 13 27  1  0  0  0  0
 14 18  1  0  0  0  0
 14 26  1  0  0  0  0
 15 35  1  0  0  0  0
 16 35  1  0  0  0  0
 17 19  1  0  0  0  0
 17 20  1  0  0  0  0
 17 26  1  0  0  0  0
 18 21  1  0  0  0  0
 18 33  1  0  0  0  0
 19 22  1  0  0  0  0
 19 33  1  0  0  0  0
 23 32  1  0  0  0  0
 31 35  2  0  0  0  0
  1 36  1  0  0  0  0
 11 37  1  0  0  0  0
 11 38  1  0  0  0  0
 12 39  1  0  0  0  0
 12 40  1  0  0  0  0
 13 41  1  0  0  0  0
 13 42  1  0  0  0  0
 14 43  1  0  0  0  0
 14 44  1  0  0  0  0
 15 45  1  0  0  0  0
 15 46  1  0  0  0  0
 16 47  1  0  0  0  0
 16 48  1  0  0  0  0
 17 49  1  0  0  0  0
 18 50  1  0  0  0  0
 19 51  1  0  0  0  0
 21 52  1  0  0  0  0
 21 53  1  0  0  0  0
 21 54  1  0  0  0  0
 22 55  1  0  0  0  0
 22 56  1  0  0  0  0
 22 57  1  0  0  0  0
 25 58  1  0  0  0  0
M  CHG  1  24  -1
M  END
> <SMILES>
CC1CN2C(C(C)O1)C1(Cc3cc4c(noc4c(c32)F)N2CCS(=O)CC2)C(=O)NC(=O)NC1=O

> <FORMATTED_ID>
H3D-003794

> <MOLFORMULA>
C22H24FN5O6S

> <Exact Mass>
505.14

> <XLogP>
-1.38

> <TPSA_NOPS>
153.6

> <s_m_source_file>
ligprep_h3d.sdf

> <i_m_source_file_index>
383

> <i_lp_mmshare_version>
55123

> <i_f3d_flags>
0

> <s_epik_input>
Tz1DMVtOSF1DKD1PKVtOSF1DKD1PKUMxMltDQEBIXTNOKFtDSDJdW0NAQEhdKFtDSDNdKU9bQ0BIXTNbQ0gzXSljNGMoW0NIMl0yKVtjSF1jNWMoYzRGKW9uYzVONltDSDJdW0NIMl1TKD1PKVtDSDJdW0NIMl02

> <s_epik_cmdline>
J2VwaWtfcHl0aG9uJywgJy1waHQnLCAnMC41JywgJy1waCcsICc3LjUnLCAnLXRuJywgJzgnLCAnLW1hJywgJzUwMCcsICctaW1hZScsICc8aW5maWxlLm1hZT4nLCAnLW9tYWUnLCAnPG91dGZpbGUubWFlPic=

> <r_lp_tautomer_probability>
1

> <r_epik_Ionization_Penalty>
0.455388

> <r_epik_Ionization_Penalty_Charging>
0.455373

> <r_epik_Ionization_Penalty_Neutral>
1.46207e-05

> <r_epik_State_Penalty>
0.458483

> <r_epik_Charging_Adjusted_Penalty>
0.913857

> <i_epik_Tot_Q>
-1

> <i_epik_Tot_abs_Q>
1

> <s_lp_Force_Field>
S-OPLS

> <r_lp_Energy>
40.985

> <b_lp_Chiralities_Consistent>
1

> <s_lp_Variant>
ligprep_h3d.sdf:383-2

> <ROCS_ShapeQuery>
_7L13

> <ROCS_TanimotoCombo>
0.764 

> <ROCS_ShapeTanimoto>
0.633 

> <ROCS_ColorTanimoto>
0.130 

> <ROCS_RefTversky>
0.770 

> <ROCS_RefColorTversky>
0.298 

> <ROCS_RefTverskyCombo>
1.068 

> <ROCS_FitTversky>
0.781 

> <ROCS_FitColorTversky>
0.188 

> <ROCS_FitTverskyCombo>
0.969 

> <ROCS_ColorScore>
-2.773

> <ROCS_Overlap>
1277.867

> <ROCS_Rank>
525                 

$$$$
ligprep_h3d.sdf:1061_12
  -OEChem-08212117123D

 59 65  0     1  0  0  0  0  0999 V2000
  -21.0069   -5.1699  -29.5028 C   0  0  0  0  0  0  0  0  0  0  0  0
  -21.7647   -4.3963  -30.3842 C   0  0  0  0  0  0  0  0  0  0  0  0
  -21.1133   -4.9210  -28.1127 C   0  0  0  0  0  0  0  0  0  0  0  0
  -21.9888   -3.9459  -27.5798 C   0  0  0  0  0  0  0  0  0  0  0  0
  -22.5892   -3.4248  -29.8611 C   0  0  0  0  0  0  0  0  0  0  0  0
  -22.7298   -3.1643  -28.4978 C   0  0  0  0  0  0  0  0  0  0  0  0
  -21.9597   -4.2892  -31.7738 C   0  0  0  0  0  0  0  0  0  0  0  0
  -21.3445   -5.0621  -32.8144 C   0  0  0  0  0  0  0  0  0  0  0  0
  -18.9209   -3.9042  -26.2028 C   0  0  0  0  0  0  0  0  0  0  0  0
  -19.3170   -6.1570  -25.0137 C   0  0  0  0  0  0  0  0  0  0  0  0
  -17.0401   -5.4537  -25.7203 C   0  0  0  0  0  0  0  0  0  0  0  0
  -20.2664   -5.7599  -27.1933 C   0  0  0  0  0  0  0  0  0  0  0  0
  -23.0230   -2.7678  -25.6496 C   0  0  0  0  0  0  0  0  0  0  0  0
  -18.6881   -6.2604  -34.2858 C   0  0  0  0  0  0  0  0  0  0  0  0
  -19.8236   -4.8636  -35.7157 C   0  0  0  0  0  0  0  0  0  0  0  0
  -20.1527   -6.5146  -33.9896 C   0  0  2  0  0  0  0  0  0  0  0  0
  -20.9053   -5.6367  -34.9887 C   0  0  1  0  0  0  0  0  0  0  0  0
  -21.2295   -4.4916  -25.2325 C   0  0  2  0  0  0  0  0  0  0  0  0
  -23.4007   -3.0652  -24.1957 C   0  0  1  0  0  0  0  0  0  0  0  0
  -21.0394   -3.5571  -24.0023 C   0  0  2  0  0  0  0  0  0  0  0  0
  -19.9144   -5.0304  -25.8728 C   0  0  0  0  0  0  0  0  0  0  0  0
  -24.4178   -4.1981  -24.0721 C   0  0  0  0  0  0  0  0  0  0  0  0
  -20.0972   -4.0609  -22.9154 C   0  0  0  0  0  0  0  0  0  0  0  0
  -22.8329   -3.3283  -32.0905 N   0  0  0  0  0  0  0  0  0  0  0  0
  -20.4793   -6.0160  -32.6161 N   0  0  0  0  0  0  0  0  0  0  0  0
  -21.6596   -4.7898  -34.1073 N   0  0  0  0  0  0  0  0  0  0  0  0
  -17.5875   -4.2816  -26.2219 N   0  0  0  0  0  0  0  0  0  0  0  0
  -17.9437   -6.3155  -25.1150 N   0  0  0  0  0  0  0  0  0  0  0  0
  -22.0937   -3.7635  -26.1987 N   0  0  3  0  0  0  0  0  0  0  0  0
  -19.2697   -2.7603  -26.4947 O   0  0  0  0  0  0  0  0  0  0  0  0
  -20.0092   -6.9284  -24.3481 O   0  0  0  0  0  0  0  0  0  0  0  0
  -15.8326   -5.6935  -25.7722 O   0  0  0  0  0  0  0  0  0  0  0  0
  -23.2285   -2.7806  -30.8756 O   0  0  0  0  0  0  0  0  0  0  0  0
  -18.6385   -4.9743  -34.9182 O   0  0  0  0  0  0  0  0  0  0  0  0
  -22.2958   -3.3527  -23.3441 O   0  0  0  0  0  0  0  0  0  0  0  0
  -23.4834   -2.1190  -28.1366 F   0  0  0  0  0  0  0  0  0  0  0  0
  -20.3407   -5.9417  -29.8778 H   0  0  0  0  0  0  0  0  0  0  0  0
  -20.8207   -6.6870  -26.9907 H   0  0  0  0  0  0  0  0  0  0  0  0
  -19.3432   -6.0528  -27.7118 H   0  0  0  0  0  0  0  0  0  0  0  0
  -23.9358   -2.7874  -26.2803 H   0  0  0  0  0  0  0  0  0  0  0  0
  -22.6822   -1.7219  -25.6949 H   0  0  0  0  0  0  0  0  0  0  0  0
  -18.0496   -6.2554  -33.3978 H   0  0  0  0  0  0  0  0  0  0  0  0
  -18.2991   -6.9968  -34.9979 H   0  0  0  0  0  0  0  0  0  0  0  0
  -19.6141   -5.3205  -36.6898 H   0  0  0  0  0  0  0  0  0  0  0  0
  -20.0642   -3.8092  -35.8827 H   0  0  0  0  0  0  0  0  0  0  0  0
  -20.4184   -7.5747  -34.0471 H   0  0  0  0  0  0  0  0  0  0  0  0
  -21.5640   -6.1876  -35.6655 H   0  0  0  0  0  0  0  0  0  0  0  0
  -21.8316   -5.3521  -24.9016 H   0  0  0  0  0  0  0  0  0  0  0  0
  -23.9216   -2.1409  -23.7643 H   0  0  0  0  0  0  0  0  0  0  0  0
  -20.6665   -2.5654  -24.3179 H   0  0  0  0  0  0  0  0  0  0  0  0
  -23.9954   -5.1230  -24.4649 H   0  0  0  0  0  0  0  0  0  0  0  0
  -25.3185   -3.9536  -24.6354 H   0  0  0  0  0  0  0  0  0  0  0  0
  -24.6845   -4.3473  -23.0257 H   0  0  0  0  0  0  0  0  0  0  0  0
  -20.4211   -5.0415  -22.5666 H   0  0  0  0  0  0  0  0  0  0  0  0
  -20.0956   -3.3687  -22.0735 H   0  0  0  0  0  0  0  0  0  0  0  0
  -19.0840   -4.1421  -23.3089 H   0  0  0  0  0  0  0  0  0  0  0  0
  -22.2866   -4.0649  -34.4364 H   0  0  0  0  0  0  0  0  0  0  0  0
  -16.9393   -3.6279  -26.6504 H   0  0  0  0  0  0  0  0  0  0  0  0
  -17.5477   -7.1268  -24.6488 H   0  0  0  0  0  0  0  0  0  0  0  0
  1  2  2  0  0  0  0
  1  3  1  0  0  0  0
  2  5  1  0  0  0  0
  2  7  1  0  0  0  0
  3  4  2  0  0  0  0
  3 12  1  0  0  0  0
  4  6  1  0  0  0  0
  4 29  1  0  0  0  0
  5  6  2  0  0  0  0
  5 33  1  0  0  0  0
  6 36  1  0  0  0  0
  7  8  1  0  0  0  0
  7 24  2  0  0  0  0
  8 25  2  0  0  0  0
  8 26  1  0  0  0  0
  9 21  1  0  0  0  0
  9 27  1  0  0  0  0
  9 30  2  0  0  0  0
 10 21  1  0  0  0  0
 10 28  1  0  0  0  0
 10 31  2  0  0  0  0
 11 27  1  0  0  0  0
 11 28  1  0  0  0  0
 11 32  2  0  0  0  0
 12 21  1  0  0  0  0
 13 19  1  0  0  0  0
 13 29  1  0  0  0  0
 14 16  1  0  0  0  0
 14 34  1  0  0  0  0
 15 17  1  0  0  0  0
 15 34  1  0  0  0  0
 16 17  1  0  0  0  0
 16 25  1  0  0  0  0
 17 26  1  0  0  0  0
 18 20  1  0  0  0  0
 18 21  1  0  0  0  0
 18 29  1  0  0  0  0
 19 22  1  0  0  0  0
 19 35  1  0  0  0  0
 20 23  1  0  0  0  0
 20 35  1  0  0  0  0
 24 33  1  0  0  0  0
  1 37  1  0  0  0  0
 12 38  1  0  0  0  0
 12 39  1  0  0  0  0
 13 40  1  0  0  0  0
 13 41  1  0  0  0  0
 14 42  1  0  0  0  0
 14 43  1  0  0  0  0
 15 44  1  0  0  0  0
 15 45  1  0  0  0  0
 16 46  1  0  0  0  0
 17 47  1  0  0  0  0
 18 48  1  0  0  0  0
 19 49  1  0  0  0  0
 20 50  1  0  0  0  0
 22 51  1  0  0  0  0
 22 52  1  0  0  0  0
 22 53  1  0  0  0  0
 23 54  1  0  0  0  0
 23 55  1  0  0  0  0
 23 56  1  0  0  0  0
 26 57  1  0  0  0  0
 27 58  1  0  0  0  0
 28 59  1  0  0  0  0
M  END
> <SMILES>
C[C@@H]1CN2[C@H]([C@H](C)O1)C1(Cc3cc4c(noc4c(c32)F)C2=N[C@@H]3COC[C@@H]3N2)C(=O)NC(=O)NC1=O

> <FORMATTED_ID>
H3D-006623

> <MOLFORMULA>
C23H23FN6O6

> <Exact Mass>
498.17

> <XLogP>
-1.12

> <TPSA_NOPS>
147.7

> <s_m_source_file>
ligprep_h3d.sdf

> <i_m_source_file_index>
1061

> <i_lp_mmshare_version>
55123

> <i_f3d_flags>
0

> <s_epik_input>
Tz1DMVtOSF1DKD1PKVtOSF1DKD1PKUMxMltDQEBIXTNOKFtDSDJdW0NAQEhdKFtDSDNdKU9bQ0BIXTNbQ0gzXSljNGMoW0NIMl0yKVtjSF1jNWMoYzRGKW9uYzVDKD1ONilbTkhdW0NASF0oW0NASF02NylbQ0gyXU9bQ0gyXTc=

> <s_epik_cmdline>
J2VwaWtfcHl0aG9uJywgJy1waHQnLCAnMC41JywgJy1waCcsICc3LjUnLCAnLXRuJywgJzgnLCAnLW1hJywgJzUwMCcsICctaW1hZScsICc8aW5maWxlLm1hZT4nLCAnLW9tYWUnLCAnPG91dGZpbGUubWFlPic=

> <r_lp_tautomer_probability>
0.5

> <r_epik_Ionization_Penalty>
0.396873

> <r_epik_Ionization_Penalty_Charging>
0

> <r_epik_Ionization_Penalty_Neutral>
0.396873

> <r_epik_State_Penalty>
0.389177

> <r_epik_Charging_Adjusted_Penalty>
0.389177

> <i_epik_Tot_Q>
0

> <i_epik_Tot_abs_Q>
0

> <s_epik_Chemistry_Notes>
This compound has an imine and may undergo hydrolysis.

> <s_lp_Force_Field>
S-OPLS

> <r_lp_Energy>
36.8309

> <b_lp_Chiralities_Consistent>
1

> <s_lp_Variant>
ligprep_h3d.sdf:1061-1

> <ROCS_ShapeQuery>
_7L13

> <ROCS_TanimotoCombo>
0.726 

> <ROCS_ShapeTanimoto>
0.607 

> <ROCS_ColorTanimoto>
0.119 

> <ROCS_RefTversky>
0.770 

> <ROCS_RefColorTversky>
0.295 

> <ROCS_RefTverskyCombo>
1.065 

> <ROCS_FitTversky>
0.741 

> <ROCS_FitColorTversky>
0.166 

> <ROCS_FitTverskyCombo>
0.907 

> <ROCS_ColorScore>
-2.774

> <ROCS_Overlap>
1281.567

> <ROCS_Rank>
526                 

$$$$
ligprep_h3d.sdf:2539_851
  -OEChem-08212117123D

 60 64  0     0  0  0  0  0  0999 V2000
  -25.2168   -5.0722  -23.9784 C   0  0  0  0  0  0  0  0  0  0  0  0
  -24.1050   -4.4501  -23.4059 C   0  0  0  0  0  0  0  0  0  0  0  0
  -18.9130   -3.2049  -25.7872 C   0  0  0  0  0  0  0  0  0  0  0  0
  -20.3108   -5.0937  -26.3489 C   0  0  0  0  0  0  0  0  0  0  0  0
  -17.8601   -4.0713  -25.4936 C   0  0  0  0  0  0  0  0  0  0  0  0
  -19.2578   -5.9602  -26.0554 C   0  0  0  0  0  0  0  0  0  0  0  0
  -21.0897   -6.2881  -33.1287 C   0  0  0  0  0  0  0  0  0  0  0  0
  -25.3723   -5.1346  -25.3689 C   0  0  0  0  0  0  0  0  0  0  0  0
  -23.1100   -3.8689  -24.1989 C   0  0  0  0  0  0  0  0  0  0  0  0
  -20.3408   -7.3906  -33.5399 C   0  0  0  0  0  0  0  0  0  0  0  0
  -19.5519   -6.1416  -35.4517 C   0  0  0  0  0  0  0  0  0  0  0  0
  -20.1384   -3.7161  -26.2147 C   0  0  0  0  0  0  0  0  0  0  0  0
  -18.0324   -5.4490  -25.6278 C   0  0  0  0  0  0  0  0  0  0  0  0
  -21.0699   -5.1123  -33.8790 C   0  0  0  0  0  0  0  0  0  0  0  0
  -24.3823   -4.5557  -26.1808 C   0  0  0  0  0  0  0  0  0  0  0  0
  -23.2858   -3.9429  -25.5811 C   0  0  0  0  0  0  0  0  0  0  0  0
  -20.3009   -5.0391  -35.0405 C   0  0  0  0  0  0  0  0  0  0  0  0
  -19.5719   -7.3173  -34.7014 C   0  0  0  0  0  0  0  0  0  0  0  0
  -23.1738   -3.8376  -27.7881 C   0  0  0  0  0  0  0  0  0  0  0  0
  -21.6942   -4.6126  -29.6246 C   0  0  0  0  0  0  0  0  0  0  0  0
  -23.7721   -3.2654  -30.1285 C   0  0  0  0  0  0  0  0  0  0  0  0
  -21.1777   -4.3229  -31.0281 C   0  0  0  0  0  0  0  0  0  0  0  0
  -23.2395   -2.9856  -31.5281 C   0  0  0  0  0  0  0  0  0  0  0  0
  -22.6297   -3.4991  -29.1269 C   0  0  0  0  0  0  0  0  0  0  0  0
  -21.2748   -2.7820  -26.5319 C   0  0  0  0  0  0  0  0  0  0  0  0
  -21.8951   -3.9596  -33.3878 C   0  0  0  0  0  0  0  0  0  0  0  0
  -16.9056   -6.3747  -25.3154 C   0  0  0  0  0  0  0  0  0  0  0  0
  -24.2954   -4.4806  -27.5521 N   0  0  0  0  0  0  0  0  0  0  0  0
  -22.5295   -3.4927  -26.6327 N   0  0  0  0  0  0  0  0  0  0  0  0
  -22.3467   -4.1232  -31.9626 N   0  3  0  0  0  0  0  0  0  0  0  0
  -20.2691   -3.9670  -35.7444 O   0  5  0  0  0  0  0  0  0  0  0  0
  -15.7682   -5.7357  -24.9106 F   0  0  0  0  0  0  0  0  0  0  0  0
  -17.1888   -7.2635  -24.3176 F   0  0  0  0  0  0  0  0  0  0  0  0
  -16.5369   -7.1338  -26.3881 F   0  0  0  0  0  0  0  0  0  0  0  0
  -18.6483   -8.6789  -35.2072 Cl  0  0  0  0  0  0  0  0  0  0  0  0
  -25.9728   -5.5162  -23.3358 H   0  0  0  0  0  0  0  0  0  0  0  0
  -24.0105   -4.4162  -22.3232 H   0  0  0  0  0  0  0  0  0  0  0  0
  -18.7698   -2.1329  -25.6795 H   0  0  0  0  0  0  0  0  0  0  0  0
  -21.2618   -5.5004  -26.6828 H   0  0  0  0  0  0  0  0  0  0  0  0
  -16.9085   -3.6639  -25.1629 H   0  0  0  0  0  0  0  0  0  0  0  0
  -19.4004   -7.0323  -26.1626 H   0  0  0  0  0  0  0  0  0  0  0  0
  -21.6852   -6.3565  -32.2220 H   0  0  0  0  0  0  0  0  0  0  0  0
  -26.2395   -5.6209  -25.8036 H   0  0  0  0  0  0  0  0  0  0  0  0
  -22.2468   -3.3869  -23.7537 H   0  0  0  0  0  0  0  0  0  0  0  0
  -20.3659   -8.3002  -32.9454 H   0  0  0  0  0  0  0  0  0  0  0  0
  -18.9468   -6.0978  -36.3573 H   0  0  0  0  0  0  0  0  0  0  0  0
  -22.2163   -5.5790  -29.6192 H   0  0  0  0  0  0  0  0  0  0  0  0
  -20.8417   -4.7183  -28.9420 H   0  0  0  0  0  0  0  0  0  0  0  0
  -24.3891   -2.4189  -29.8019 H   0  0  0  0  0  0  0  0  0  0  0  0
  -24.4381   -4.1386  -30.1577 H   0  0  0  0  0  0  0  0  0  0  0  0
  -20.5663   -3.4141  -31.0583 H   0  0  0  0  0  0  0  0  0  0  0  0
  -20.5948   -5.1695  -31.4056 H   0  0  0  0  0  0  0  0  0  0  0  0
  -24.0626   -2.9205  -32.2472 H   0  0  0  0  0  0  0  0  0  0  0  0
  -22.6472   -2.0645  -31.5638 H   0  0  0  0  0  0  0  0  0  0  0  0
  -22.0517   -2.5712  -29.0287 H   0  0  0  0  0  0  0  0  0  0  0  0
  -21.3792   -2.0091  -25.7608 H   0  0  0  0  0  0  0  0  0  0  0  0
  -21.1023   -2.2554  -27.4785 H   0  0  0  0  0  0  0  0  0  0  0  0
  -21.3317   -3.0214  -33.4335 H   0  0  0  0  0  0  0  0  0  0  0  0
  -22.8001   -3.8352  -33.9923 H   0  0  0  0  0  0  0  0  0  0  0  0
  -22.9117   -4.9831  -31.9338 H   0  0  0  0  0  0  0  0  0  0  0  0
  1  2  2  0  0  0  0
  1  8  1  0  0  0  0
  2  9  1  0  0  0  0
  3  5  1  0  0  0  0
  3 12  2  0  0  0  0
  4  6  2  0  0  0  0
  4 12  1  0  0  0  0
  5 13  2  0  0  0  0
  6 13  1  0  0  0  0
  7 10  1  0  0  0  0
  7 14  2  0  0  0  0
  8 15  2  0  0  0  0
  9 16  2  0  0  0  0
 10 18  2  0  0  0  0
 11 17  2  0  0  0  0
 11 18  1  0  0  0  0
 12 25  1  0  0  0  0
 13 27  1  0  0  0  0
 14 17  1  0  0  0  0
 14 26  1  0  0  0  0
 15 16  1  0  0  0  0
 15 28  1  0  0  0  0
 16 29  1  0  0  0  0
 17 31  1  0  0  0  0
 18 35  1  0  0  0  0
 19 24  1  0  0  0  0
 19 28  2  0  0  0  0
 19 29  1  0  0  0  0
 20 22  1  0  0  0  0
 20 24  1  0  0  0  0
 21 23  1  0  0  0  0
 21 24  1  0  0  0  0
 22 30  1  0  0  0  0
 23 30  1  0  0  0  0
 25 29  1  0  0  0  0
 26 30  1  0  0  0  0
 27 32  1  0  0  0  0
 27 33  1  0  0  0  0
 27 34  1  0  0  0  0
  1 36  1  0  0  0  0
  2 37  1  0  0  0  0
  3 38  1  0  0  0  0
  4 39  1  0  0  0  0
  5 40  1  0  0  0  0
  6 41  1  0  0  0  0
  7 42  1  0  0  0  0
  8 43  1  0  0  0  0
  9 44  1  0  0  0  0
 10 45  1  0  0  0  0
 11 46  1  0  0  0  0
 20 47  1  0  0  0  0
 20 48  1  0  0  0  0
 21 49  1  0  0  0  0
 21 50  1  0  0  0  0
 22 51  1  0  0  0  0
 22 52  1  0  0  0  0
 23 53  1  0  0  0  0
 23 54  1  0  0  0  0
 24 55  1  0  0  0  0
 25 56  1  0  0  0  0
 25 57  1  0  0  0  0
 26 58  1  0  0  0  0
 26 59  1  0  0  0  0
 30 60  1  0  0  0  0
M  CHG  2  30   1  31  -1
M  END
> <SMILES>
Oc1cc(ccc1CN1CCC(CC1)c1nc2ccccc2n1Cc1ccc(cc1)C(F)(F)F)Cl

> <FORMATTED_ID>
H3D-006162

> <MOLFORMULA>
C27H25ClF3N3O

> <Exact Mass>
499.16

> <XLogP>
8.13

> <TPSA_NOPS>
41.3

> <s_m_source_file>
ligprep_h3d.sdf

> <i_m_source_file_index>
2539

> <i_lp_mmshare_version>
55123

> <i_f3d_flags>
0

> <s_epik_input>
W09IXWMxW2NIXWMoQ2wpW2NIXVtjSF1jMVtDSDJdTjJbQ0gyXVtDSDJdW0NIXShbQ0gyXVtDSDJdMiljKG4zKW4oYyhjMzQpW2NIXVtjSF1bY0hdW2NIXTQpW0NIMl1jNVtjSF1bY0hdYyhDKEYpKEYpRilbY0hdW2NIXTU=

> <s_epik_cmdline>
J2VwaWtfcHl0aG9uJywgJy1waHQnLCAnMC41JywgJy1waCcsICc3LjUnLCAnLXRuJywgJzgnLCAnLW1hJywgJzUwMCcsICctaW1hZScsICc8aW5maWxlLm1hZT4nLCAnLW9tYWUnLCAnPG91dGZpbGUubWFlPic=

> <r_epik_Ionization_Penalty>
0.383368

> <r_epik_Ionization_Penalty_Charging>
0.374702

> <r_epik_Ionization_Penalty_Neutral>
0.00866567

> <r_epik_State_Penalty>
0.314583

> <r_epik_Charging_Adjusted_Penalty>
0.689285

> <i_epik_Tot_Q>
0

> <i_epik_Tot_abs_Q>
2

> <s_lp_Force_Field>
S-OPLS

> <r_lp_Energy>
36.3501

> <b_lp_Chiralities_Consistent>
1

> <s_lp_Variant>
ligprep_h3d.sdf:2539-1

> <ROCS_ShapeQuery>
_7L13

> <ROCS_TanimotoCombo>
0.712 

> <ROCS_ShapeTanimoto>
0.641 

> <ROCS_ColorTanimoto>
0.071 

> <ROCS_RefTversky>
0.770 

> <ROCS_RefColorTversky>
0.139 

> <ROCS_RefTverskyCombo>
0.909 

> <ROCS_FitTversky>
0.793 

> <ROCS_FitColorTversky>
0.126 

> <ROCS_FitTverskyCombo>
0.919 

> <ROCS_ColorScore>
-1.257

> <ROCS_Overlap>
1276.664

> <ROCS_Rank>
527                 

$$$$
ligprep_h3d.sdf:716_1848
  -OEChem-08212117123D

 60 64  0     0  0  0  0  0  0999 V2000
  -20.1477   -3.8462  -32.2580 C   0  0  0  0  0  0  0  0  0  0  0  0
  -20.6842   -6.1961  -32.0936 C   0  0  0  0  0  0  0  0  0  0  0  0
  -19.6203   -4.0558  -33.5322 C   0  0  0  0  0  0  0  0  0  0  0  0
  -20.1568   -6.4057  -33.3678 C   0  0  0  0  0  0  0  0  0  0  0  0
  -16.6619   -4.9200  -26.3624 C   0  0  0  0  0  0  0  0  0  0  0  0
  -23.1123   -4.1689  -28.7976 C   0  0  0  0  0  0  0  0  0  0  0  0
  -20.7444   -4.4710  -25.3959 C   0  0  0  0  0  0  0  0  0  0  0  0
  -17.0834   -6.1134  -26.9788 C   0  0  0  0  0  0  0  0  0  0  0  0
  -19.4563   -8.9423  -36.6320 C   0  0  0  0  0  0  0  0  0  0  0  0
  -18.6642   -7.9848  -36.0436 C   0  0  0  0  0  0  0  0  0  0  0  0
  -20.6572   -7.1873  -36.5419 C   0  0  0  0  0  0  0  0  0  0  0  0
  -20.9665   -4.5889  -27.8004 C   0  0  0  0  0  0  0  0  0  0  0  0
  -20.6797   -4.9164  -31.5387 C   0  0  0  0  0  0  0  0  0  0  0  0
  -21.2291   -4.6980  -30.2109 C   0  0  0  0  0  0  0  0  0  0  0  0
  -19.6249   -5.3355  -34.0871 C   0  0  0  0  0  0  0  0  0  0  0  0
  -22.5743   -4.3809  -30.0694 C   0  0  0  0  0  0  0  0  0  0  0  0
  -20.4251   -4.8022  -29.0795 C   0  0  0  0  0  0  0  0  0  0  0  0
  -22.3315   -4.2668  -27.6492 C   0  0  0  0  0  0  0  0  0  0  0  0
  -20.1799   -4.6873  -26.6447 C   0  0  0  0  0  0  0  0  0  0  0  0
  -22.0884   -4.1609  -25.3481 C   0  0  0  0  0  0  0  0  0  0  0  0
  -17.8209   -4.2129  -26.1547 C   0  0  0  0  0  0  0  0  0  0  0  0
  -22.7420   -3.9239  -24.0724 C   0  0  0  0  0  0  0  0  0  0  0  0
  -23.4823   -4.2552  -31.2515 C   0  0  0  0  0  0  0  0  0  0  0  0
  -18.9806   -5.1481  -29.3105 C   0  0  0  0  0  0  0  0  0  0  0  0
  -18.0398   -2.8861  -25.5460 C   0  0  0  0  0  0  0  0  0  0  0  0
  -24.8949   -4.0497  -22.7917 C   0  0  0  0  0  0  0  0  0  0  0  0
  -19.0607   -5.5596  -35.4493 C   0  0  0  0  0  0  0  0  0  0  0  0
  -20.6956   -8.4395  -36.9401 N   0  0  0  0  0  0  0  0  0  0  0  0
  -18.4069   -6.1651  -27.1514 N   0  0  0  0  0  0  0  0  0  0  0  0
  -22.8820   -4.0562  -26.4386 N   0  0  0  0  0  0  0  0  0  0  0  0
  -19.4469   -6.8659  -35.9931 N   0  0  0  0  0  0  0  0  0  0  0  0
  -18.8270   -4.9954  -26.6401 N   0  0  0  0  0  0  0  0  0  0  0  0
  -24.1013   -4.2486  -23.9832 N   0  0  0  0  0  0  0  0  0  0  0  0
  -22.1098   -3.4338  -23.1190 O   0  0  0  0  0  0  0  0  0  0  0  0
  -20.1363   -2.8429  -31.8389 H   0  0  0  0  0  0  0  0  0  0  0  0
  -21.0959   -7.0404  -31.5456 H   0  0  0  0  0  0  0  0  0  0  0  0
  -19.2069   -3.2164  -34.0850 H   0  0  0  0  0  0  0  0  0  0  0  0
  -20.1650   -7.4061  -33.7927 H   0  0  0  0  0  0  0  0  0  0  0  0
  -15.6575   -4.6171  -26.1051 H   0  0  0  0  0  0  0  0  0  0  0  0
  -24.1689   -3.9210  -28.7016 H   0  0  0  0  0  0  0  0  0  0  0  0
  -20.1573   -4.5411  -24.4843 H   0  0  0  0  0  0  0  0  0  0  0  0
  -16.4813   -6.9475  -27.3093 H   0  0  0  0  0  0  0  0  0  0  0  0
  -19.1972   -9.9682  -36.8494 H   0  0  0  0  0  0  0  0  0  0  0  0
  -17.6496   -8.0027  -35.6708 H   0  0  0  0  0  0  0  0  0  0  0  0
  -21.4654   -6.4734  -36.6242 H   0  0  0  0  0  0  0  0  0  0  0  0
  -23.4822   -3.2235  -31.6195 H   0  0  0  0  0  0  0  0  0  0  0  0
  -23.1651   -4.9185  -32.0644 H   0  0  0  0  0  0  0  0  0  0  0  0
  -24.5096   -4.5354  -30.9907 H   0  0  0  0  0  0  0  0  0  0  0  0
  -18.8532   -6.2334  -29.2973 H   0  0  0  0  0  0  0  0  0  0  0  0
  -18.6393   -4.7599  -30.2741 H   0  0  0  0  0  0  0  0  0  0  0  0
  -18.3482   -4.7044  -28.5364 H   0  0  0  0  0  0  0  0  0  0  0  0
  -17.9953   -2.0884  -26.3054 H   0  0  0  0  0  0  0  0  0  0  0  0
  -19.0204   -2.8174  -25.0448 H   0  0  0  0  0  0  0  0  0  0  0  0
  -17.2861   -2.6559  -24.7735 H   0  0  0  0  0  0  0  0  0  0  0  0
  -24.9072   -4.9768  -22.1998 H   0  0  0  0  0  0  0  0  0  0  0  0
  -24.4582   -3.2376  -22.1919 H   0  0  0  0  0  0  0  0  0  0  0  0
  -25.9233   -3.7830  -23.0766 H   0  0  0  0  0  0  0  0  0  0  0  0
  -19.3951   -4.7896  -36.1628 H   0  0  0  0  0  0  0  0  0  0  0  0
  -17.9601   -5.5111  -35.4499 H   0  0  0  0  0  0  0  0  0  0  0  0
  -24.5850   -4.5865  -24.8088 H   0  0  0  0  0  0  0  0  0  0  0  0
  1  3  1  0  0  0  0
  1 13  2  0  0  0  0
  2  4  2  0  0  0  0
  2 13  1  0  0  0  0
  3 15  2  0  0  0  0
  4 15  1  0  0  0  0
  5  8  1  0  0  0  0
  5 21  2  0  0  0  0
  6 16  2  0  0  0  0
  6 18  1  0  0  0  0
  7 19  1  0  0  0  0
  7 20  2  0  0  0  0
  8 29  2  0  0  0  0
  9 10  2  0  0  0  0
  9 28  1  0  0  0  0
 10 31  1  0  0  0  0
 11 28  2  0  0  0  0
 11 31  1  0  0  0  0
 12 17  1  0  0  0  0
 12 18  1  0  0  0  0
 12 19  2  0  0  0  0
 13 14  1  0  0  0  0
 14 16  1  0  0  0  0
 14 17  2  0  0  0  0
 15 27  1  0  0  0  0
 16 23  1  0  0  0  0
 17 24  1  0  0  0  0
 18 30  2  0  0  0  0
 19 32  1  0  0  0  0
 20 22  1  0  0  0  0
 20 30  1  0  0  0  0
 21 25  1  0  0  0  0
 21 32  1  0  0  0  0
 22 33  1  0  0  0  0
 22 34  2  0  0  0  0
 26 33  1  0  0  0  0
 27 31  1  0  0  0  0
 29 32  1  0  0  0  0
  1 35  1  0  0  0  0
  2 36  1  0  0  0  0
  3 37  1  0  0  0  0
  4 38  1  0  0  0  0
  5 39  1  0  0  0  0
  6 40  1  0  0  0  0
  7 41  1  0  0  0  0
  8 42  1  0  0  0  0
  9 43  1  0  0  0  0
 10 44  1  0  0  0  0
 11 45  1  0  0  0  0
 23 46  1  0  0  0  0
 23 47  1  0  0  0  0
 23 48  1  0  0  0  0
 24 49  1  0  0  0  0
 24 50  1  0  0  0  0
 24 51  1  0  0  0  0
 25 52  1  0  0  0  0
 25 53  1  0  0  0  0
 25 54  1  0  0  0  0
 26 55  1  0  0  0  0
 26 56  1  0  0  0  0
 26 57  1  0  0  0  0
 27 58  1  0  0  0  0
 27 59  1  0  0  0  0
 33 60  1  0  0  0  0
M  END
> <SMILES>
CNC(=O)c1cc(c2c(c(c(cc2n1)C)-c1ccc(cc1)Cn1ccnc1)C)-n1nccc1C

> <FORMATTED_ID>
H3D-004941

> <MOLFORMULA>
C27H26N6O

> <Exact Mass>
450.22

> <XLogP>
5.11

> <TPSA_NOPS>
77.6

> <s_m_source_file>
ligprep_h3d.sdf

> <i_m_source_file_index>
716

> <i_lp_mmshare_version>
55123

> <i_f3d_flags>
0

> <s_epik_input>
W0NIM11jMVtjSF1bY0hdbm4xLWMyW2NIXWMoQyg9TylbTkhdW0NIM10pbmMoYzIzKVtjSF1jKFtDSDNdKWMoYzNbQ0gzXSktYzRbY0hdW2NIXWMoW2NIXVtjSF00KVtDSDJdbjVbY0hdW2NIXW5bY0hdNQ==

> <s_epik_cmdline>
J2VwaWtfcHl0aG9uJywgJy1waHQnLCAnMC41JywgJy1waCcsICc3LjUnLCAnLXRuJywgJzgnLCAnLW1hJywgJzUwMCcsICctaW1hZScsICc8aW5maWxlLm1hZT4nLCAnLW9tYWUnLCAnPG91dGZpbGUubWFlPic=

> <r_lp_tautomer_probability>
1

> <r_epik_Ionization_Penalty>
0.12636

> <r_epik_Ionization_Penalty_Charging>
0.126343

> <r_epik_Ionization_Penalty_Neutral>
1.7493e-05

> <r_epik_State_Penalty>
0.115795

> <r_epik_Charging_Adjusted_Penalty>
0.242138

> <i_epik_Tot_Q>
0

> <i_epik_Tot_abs_Q>
0

> <s_lp_Force_Field>
S-OPLS

> <r_lp_Energy>
51.0904

> <b_lp_Chiralities_Consistent>
1

> <s_lp_Variant>
ligprep_h3d.sdf:716-1

> <ROCS_ShapeQuery>
_7L13

> <ROCS_TanimotoCombo>
0.761 

> <ROCS_ShapeTanimoto>
0.641 

> <ROCS_ColorTanimoto>
0.119 

> <ROCS_RefTversky>
0.770 

> <ROCS_RefColorTversky>
0.224 

> <ROCS_RefTverskyCombo>
0.994 

> <ROCS_FitTversky>
0.794 

> <ROCS_FitColorTversky>
0.203 

> <ROCS_FitTverskyCombo>
0.997 

> <ROCS_ColorScore>
-2.025

> <ROCS_Overlap>
1276.412

> <ROCS_Rank>
528                 

$$$$
ligprep_h3d.sdf:5175_1994
  -OEChem-08212117123D

 65 69  0     1  0  0  0  0  0999 V2000
  -25.0498   -4.7521  -22.7993 C   0  0  0  0  0  0  0  0  0  0  0  0
  -16.9019   -4.7192  -25.0112 C   0  0  0  0  0  0  0  0  0  0  0  0
  -25.6045   -5.3766  -23.9163 C   0  0  0  0  0  0  0  0  0  0  0  0
  -23.9342   -3.9273  -22.9434 C   0  0  0  0  0  0  0  0  0  0  0  0
  -17.1037   -4.6929  -26.3911 C   0  0  0  0  0  0  0  0  0  0  0  0
  -17.9623   -5.0216  -24.1569 C   0  0  0  0  0  0  0  0  0  0  0  0
  -25.0436   -5.1763  -25.1777 C   0  0  0  0  0  0  0  0  0  0  0  0
  -23.3732   -3.7270  -24.2047 C   0  0  0  0  0  0  0  0  0  0  0  0
  -18.3659   -4.9690  -26.9167 C   0  0  0  0  0  0  0  0  0  0  0  0
  -19.2245   -5.2977  -24.6825 C   0  0  0  0  0  0  0  0  0  0  0  0
  -20.7162   -6.3254  -34.6661 C   0  0  0  0  0  0  0  0  0  0  0  0
  -19.6365   -4.1666  -34.5612 C   0  0  0  0  0  0  0  0  0  0  0  0
  -21.7221   -5.8637  -33.8173 C   0  0  0  0  0  0  0  0  0  0  0  0
  -20.6424   -3.7048  -33.7123 C   0  0  0  0  0  0  0  0  0  0  0  0
  -23.9279   -4.3515  -25.3219 C   0  0  0  0  0  0  0  0  0  0  0  0
  -19.6734   -5.4769  -35.0381 C   0  0  0  0  0  0  0  0  0  0  0  0
  -19.4263   -5.2714  -26.0625 C   0  0  0  0  0  0  0  0  0  0  0  0
  -21.6852   -4.5534  -33.3404 C   0  0  0  0  0  0  0  0  0  0  0  0
  -18.5360   -7.2102  -36.4615 C   0  0  0  0  0  0  0  0  0  0  0  0
  -21.4721   -5.0677  -30.2567 C   0  0  0  0  0  0  0  0  0  0  0  0
  -23.7188   -4.6520  -27.8736 C   0  0  0  0  0  0  0  0  0  0  0  0
  -22.4575   -3.1647  -27.0756 C   0  0  0  0  0  0  0  0  0  0  0  0
  -22.7381   -3.0859  -29.6804 C   0  0  0  0  0  0  0  0  0  0  0  0
  -21.2072   -4.7245  -28.7894 C   0  0  1  0  0  0  0  0  0  0  0  0
  -22.4626   -3.9205  -28.4241 C   0  0  0  0  0  0  0  0  0  0  0  0
  -17.3026   -7.3096  -37.3237 C   0  0  0  0  0  0  0  0  0  0  0  0
  -20.9322   -5.9473  -27.9336 C   0  0  0  0  0  0  0  0  0  0  0  0
  -23.3640   -4.1499  -26.5892 N   0  0  0  0  0  0  0  0  0  0  0  0
  -22.0961   -3.8312  -30.8074 N   0  0  2  0  0  0  0  0  0  0  0  0
  -18.6673   -5.9388  -35.8871 N   0  0  0  0  0  0  0  0  0  0  0  0
  -20.6905   -5.5481  -26.5886 N   0  0  0  0  0  0  0  0  0  0  0  0
  -19.2891   -8.1696  -36.3296 O   0  0  0  0  0  0  0  0  0  0  0  0
  -23.3474   -2.6474  -32.7257 O   0  0  0  0  0  0  0  0  0  0  0  0
  -23.9497   -5.0232  -32.1422 O   0  0  0  0  0  0  0  0  0  0  0  0
  -22.9598   -3.9682  -32.2642 S   0  0  0  0  0  0  0  0  0  0  0  0
  -25.4866   -4.9083  -21.8171 H   0  0  0  0  0  0  0  0  0  0  0  0
  -15.9191   -4.5039  -24.6019 H   0  0  0  0  0  0  0  0  0  0  0  0
  -26.4729   -6.0187  -23.8039 H   0  0  0  0  0  0  0  0  0  0  0  0
  -23.5023   -3.4410  -22.0733 H   0  0  0  0  0  0  0  0  0  0  0  0
  -16.2782   -4.4573  -27.0559 H   0  0  0  0  0  0  0  0  0  0  0  0
  -17.8050   -5.0420  -23.0823 H   0  0  0  0  0  0  0  0  0  0  0  0
  -25.4832   -5.6676  -26.0418 H   0  0  0  0  0  0  0  0  0  0  0  0
  -22.5040   -3.0819  -24.3050 H   0  0  0  0  0  0  0  0  0  0  0  0
  -18.5127   -4.9458  -27.9935 H   0  0  0  0  0  0  0  0  0  0  0  0
  -20.0433   -5.5324  -24.0071 H   0  0  0  0  0  0  0  0  0  0  0  0
  -20.7550   -7.3485  -35.0316 H   0  0  0  0  0  0  0  0  0  0  0  0
  -18.8288   -3.4966  -34.8446 H   0  0  0  0  0  0  0  0  0  0  0  0
  -22.5297   -6.5331  -33.5336 H   0  0  0  0  0  0  0  0  0  0  0  0
  -20.6040   -2.6822  -33.3466 H   0  0  0  0  0  0  0  0  0  0  0  0
  -20.5348   -5.2247  -30.7891 H   0  0  0  0  0  0  0  0  0  0  0  0
  -22.1019   -5.9442  -30.3773 H   0  0  0  0  0  0  0  0  0  0  0  0
  -24.6840   -4.2870  -28.2280 H   0  0  0  0  0  0  0  0  0  0  0  0
  -23.6813   -5.7438  -27.9175 H   0  0  0  0  0  0  0  0  0  0  0  0
  -21.5071   -3.1708  -26.5265 H   0  0  0  0  0  0  0  0  0  0  0  0
  -22.8787   -2.1535  -27.0673 H   0  0  0  0  0  0  0  0  0  0  0  0
  -23.8192   -3.0099  -29.8586 H   0  0  0  0  0  0  0  0  0  0  0  0
  -22.3252   -2.0717  -29.6200 H   0  0  0  0  0  0  0  0  0  0  0  0
  -20.2892   -4.0667  -28.7394 H   0  0  0  0  0  0  0  0  0  0  0  0
  -16.4550   -7.6462  -36.7199 H   0  0  0  0  0  0  0  0  0  0  0  0
  -17.0680   -6.3295  -37.7486 H   0  0  0  0  0  0  0  0  0  0  0  0
  -17.4741   -8.0168  -38.1406 H   0  0  0  0  0  0  0  0  0  0  0  0
  -21.8117   -6.5855  -27.9933 H   0  0  0  0  0  0  0  0  0  0  0  0
  -20.0573   -6.4416  -28.3513 H   0  0  0  0  0  0  0  0  0  0  0  0
  -17.9279   -5.2676  -36.1252 H   0  0  0  0  0  0  0  0  0  0  0  0
  -21.4833   -5.4503  -25.9485 H   0  0  0  0  0  0  0  0  0  0  0  0
  1  3  2  0  0  0  0
  1  4  1  0  0  0  0
  2  5  2  0  0  0  0
  2  6  1  0  0  0  0
  3  7  1  0  0  0  0
  4  8  2  0  0  0  0
  5  9  1  0  0  0  0
  6 10  2  0  0  0  0
  7 15  2  0  0  0  0
  8 15  1  0  0  0  0
  9 17  2  0  0  0  0
 10 17  1  0  0  0  0
 11 13  1  0  0  0  0
 11 16  2  0  0  0  0
 12 14  2  0  0  0  0
 12 16  1  0  0  0  0
 13 18  2  0  0  0  0
 14 18  1  0  0  0  0
 15 28  1  0  0  0  0
 16 30  1  0  0  0  0
 17 31  1  0  0  0  0
 18 35  1  0  0  0  0
 19 26  1  0  0  0  0
 19 30  1  0  0  0  0
 19 32  2  0  0  0  0
 20 24  1  0  0  0  0
 20 29  1  0  0  0  0
 21 25  1  0  0  0  0
 21 28  1  0  0  0  0
 22 25  1  0  0  0  0
 22 28  1  0  0  0  0
 23 25  1  0  0  0  0
 23 29  1  0  0  0  0
 24 25  1  0  0  0  0
 24 27  1  0  0  0  0
 27 31  1  0  0  0  0
 29 35  1  0  0  0  0
 33 35  2  0  0  0  0
 34 35  2  0  0  0  0
  1 36  1  0  0  0  0
  2 37  1  0  0  0  0
  3 38  1  0  0  0  0
  4 39  1  0  0  0  0
  5 40  1  0  0  0  0
  6 41  1  0  0  0  0
  7 42  1  0  0  0  0
  8 43  1  0  0  0  0
  9 44  1  0  0  0  0
 10 45  1  0  0  0  0
 11 46  1  0  0  0  0
 12 47  1  0  0  0  0
 13 48  1  0  0  0  0
 14 49  1  0  0  0  0
 20 50  1  0  0  0  0
 20 51  1  0  0  0  0
 21 52  1  0  0  0  0
 21 53  1  0  0  0  0
 22 54  1  0  0  0  0
 22 55  1  0  0  0  0
 23 56  1  0  0  0  0
 23 57  1  0  0  0  0
 24 58  1  0  0  0  0
 26 59  1  0  0  0  0
 26 60  1  0  0  0  0
 26 61  1  0  0  0  0
 27 62  1  0  0  0  0
 27 63  1  0  0  0  0
 30 64  1  0  0  0  0
 31 65  1  0  0  0  0
M  END
> <SMILES>
CC(=O)Nc1ccc(cc1)S(=O)(=O)N1CC(CNc2ccccc2)C2(CN(C2)c2ccccc2)C1

> <FORMATTED_ID>
H3D-013992

> <MOLFORMULA>
C27H30N4O3S

> <Exact Mass>
490.2

> <XLogP>
2.89

> <TPSA_NOPS>
90.1

> <s_m_source_file>
ligprep_h3d.sdf

> <i_m_source_file_index>
5175

> <i_lp_mmshare_version>
55123

> <i_f3d_flags>
0

> <s_epik_input>
W0NIM11DKD1PKVtOSF1jMVtjSF1bY0hdYyhbY0hdW2NIXTEpUyg9TykoPU8pTihbQ0gyXTIpW0NIMl1bQ0BIXShbQ0gyXVtOSF1jM1tjSF1bY0hdW2NIXVtjSF1bY0hdMylDMjRbQ0gyXU4oW0NIMl00KWM1W2NIXVtjSF1bY0hdW2NIXVtjSF01

> <s_epik_cmdline>
J2VwaWtfcHl0aG9uJywgJy1waHQnLCAnMC41JywgJy1waCcsICc3LjUnLCAnLXRuJywgJzgnLCAnLW1hJywgJzUwMCcsICctaW1hZScsICc8aW5maWxlLm1hZT4nLCAnLW9tYWUnLCAnPG91dGZpbGUubWFlPic=

> <r_lp_tautomer_probability>
1

> <r_epik_Ionization_Penalty>
0.00197199

> <r_epik_Ionization_Penalty_Charging>
0

> <r_epik_Ionization_Penalty_Neutral>
0.00197199

> <r_epik_State_Penalty>
-0

> <r_epik_Charging_Adjusted_Penalty>
0

> <i_epik_Tot_Q>
0

> <i_epik_Tot_abs_Q>
0

> <s_lp_Force_Field>
S-OPLS

> <r_lp_Energy>
20.6401

> <b_lp_Chiralities_Consistent>
1

> <s_lp_Variant>
ligprep_h3d.sdf:5175-1

> <ROCS_ShapeQuery>
_7L13

> <ROCS_TanimotoCombo>
0.714 

> <ROCS_ShapeTanimoto>
0.652 

> <ROCS_ColorTanimoto>
0.062 

> <ROCS_RefTversky>
0.770 

> <ROCS_RefColorTversky>
0.123 

> <ROCS_RefTverskyCombo>
0.893 

> <ROCS_FitTversky>
0.810 

> <ROCS_FitColorTversky>
0.112 

> <ROCS_FitTverskyCombo>
0.921 

> <ROCS_ColorScore>
-1.113

> <ROCS_Overlap>
1275.026

> <ROCS_Rank>
529                 

$$$$
ligprep_h3d.sdf:789_1545
  -OEChem-08212117123D

 63 67  0     0  0  0  0  0  0999 V2000
  -19.8105   -3.9072  -32.3490 C   0  0  0  0  0  0  0  0  0  0  0  0
  -20.1086   -6.2937  -32.1194 C   0  0  0  0  0  0  0  0  0  0  0  0
  -19.2250   -4.1006  -33.6001 C   0  0  0  0  0  0  0  0  0  0  0  0
  -19.5231   -6.4872  -33.3705 C   0  0  0  0  0  0  0  0  0  0  0  0
  -16.5520   -5.5989  -26.5220 C   0  0  0  0  0  0  0  0  0  0  0  0
  -22.8328   -4.4266  -28.9633 C   0  0  0  0  0  0  0  0  0  0  0  0
  -20.5535   -4.3766  -25.4887 C   0  0  0  0  0  0  0  0  0  0  0  0
  -16.5267   -4.1982  -26.6605 C   0  0  0  0  0  0  0  0  0  0  0  0
  -20.9054   -6.8042  -37.7758 C   0  0  0  0  0  0  0  0  0  0  0  0
  -20.4050   -5.7408  -37.0674 C   0  0  0  0  0  0  0  0  0  0  0  0
  -20.6874   -4.5915  -27.8930 C   0  0  0  0  0  0  0  0  0  0  0  0
  -20.2523   -5.0037  -31.6086 C   0  0  0  0  0  0  0  0  0  0  0  0
  -20.8622   -4.8020  -30.3048 C   0  0  0  0  0  0  0  0  0  0  0  0
  -19.0813   -5.3906  -34.1109 C   0  0  0  0  0  0  0  0  0  0  0  0
  -22.2366   -4.6213  -30.2116 C   0  0  0  0  0  0  0  0  0  0  0  0
  -20.0874   -4.7874  -29.1486 C   0  0  0  0  0  0  0  0  0  0  0  0
  -22.0822   -4.4075  -27.7909 C   0  0  0  0  0  0  0  0  0  0  0  0
  -19.9313   -4.5722  -26.7132 C   0  0  0  0  0  0  0  0  0  0  0  0
  -21.9230   -4.2057  -25.4889 C   0  0  0  0  0  0  0  0  0  0  0  0
  -17.8874   -5.9202  -26.5253 C   0  0  0  0  0  0  0  0  0  0  0  0
  -22.6368   -3.9979  -24.2407 C   0  0  0  0  0  0  0  0  0  0  0  0
  -23.1155   -4.6269  -31.4220 C   0  0  0  0  0  0  0  0  0  0  0  0
  -18.6087   -4.9893  -29.3274 C   0  0  0  0  0  0  0  0  0  0  0  0
  -18.5599   -7.2295  -26.4131 C   0  0  0  0  0  0  0  0  0  0  0  0
  -18.4551   -5.5975  -35.4485 C   0  0  0  0  0  0  0  0  0  0  0  0
  -24.8044   -4.3055  -23.0168 C   0  0  0  0  0  0  0  0  0  0  0  0
  -26.1656   -4.9166  -23.2949 C   0  0  0  0  0  0  0  0  0  0  0  0
  -20.1707   -7.9246  -37.5029 N   0  0  0  0  0  0  0  0  0  0  0  0
  -17.7490   -3.6664  -26.7457 N   0  0  0  0  0  0  0  0  0  0  0  0
  -22.6889   -4.2174  -26.6040 N   0  0  0  0  0  0  0  0  0  0  0  0
  -19.2202   -7.5887  -36.6376 N   0  0  0  0  0  0  0  0  0  0  0  0
  -19.3625   -6.2790  -36.3777 N   0  0  0  0  0  0  0  0  0  0  0  0
  -18.5548   -4.7385  -26.6606 N   0  0  0  0  0  0  0  0  0  0  0  0
  -23.9579   -4.4583  -24.1782 N   0  0  0  0  0  0  0  0  0  0  0  0
  -22.0882   -3.4156  -23.2873 O   0  0  0  0  0  0  0  0  0  0  0  0
  -26.9828   -4.7956  -22.1376 O   0  0  0  0  0  0  0  0  0  0  0  0
  -19.9149   -2.8954  -31.9642 H   0  0  0  0  0  0  0  0  0  0  0  0
  -20.4486   -7.1585  -31.5545 H   0  0  0  0  0  0  0  0  0  0  0  0
  -18.8827   -3.2406  -34.1695 H   0  0  0  0  0  0  0  0  0  0  0  0
  -19.4156   -7.4957  -33.7611 H   0  0  0  0  0  0  0  0  0  0  0  0
  -15.7173   -6.2787  -26.4329 H   0  0  0  0  0  0  0  0  0  0  0  0
  -23.9117   -4.2863  -28.9052 H   0  0  0  0  0  0  0  0  0  0  0  0
  -19.9911   -4.3573  -24.5593 H   0  0  0  0  0  0  0  0  0  0  0  0
  -15.6685   -3.5430  -26.7031 H   0  0  0  0  0  0  0  0  0  0  0  0
  -21.7419   -6.8216  -38.4577 H   0  0  0  0  0  0  0  0  0  0  0  0
  -20.6873   -4.7001  -36.9977 H   0  0  0  0  0  0  0  0  0  0  0  0
  -23.2095   -3.6127  -31.8249 H   0  0  0  0  0  0  0  0  0  0  0  0
  -22.7069   -5.2788  -32.2027 H   0  0  0  0  0  0  0  0  0  0  0  0
  -24.1163   -5.0034  -31.1805 H   0  0  0  0  0  0  0  0  0  0  0  0
  -18.3713   -6.0547  -29.2736 H   0  0  0  0  0  0  0  0  0  0  0  0
  -18.2791   -4.5980  -30.2939 H   0  0  0  0  0  0  0  0  0  0  0  0
  -18.0494   -4.4587  -28.5517 H   0  0  0  0  0  0  0  0  0  0  0  0
  -18.7677   -7.4803  -25.3600 H   0  0  0  0  0  0  0  0  0  0  0  0
  -19.5190   -7.2500  -26.9582 H   0  0  0  0  0  0  0  0  0  0  0  0
  -17.9504   -8.0453  -26.8381 H   0  0  0  0  0  0  0  0  0  0  0  0
  -18.1568   -4.6440  -35.9129 H   0  0  0  0  0  0  0  0  0  0  0  0
  -17.5345   -6.1990  -35.3811 H   0  0  0  0  0  0  0  0  0  0  0  0
  -24.8874   -3.2376  -22.7910 H   0  0  0  0  0  0  0  0  0  0  0  0
  -24.3237   -4.8132  -22.1751 H   0  0  0  0  0  0  0  0  0  0  0  0
  -26.0586   -5.9816  -23.5231 H   0  0  0  0  0  0  0  0  0  0  0  0
  -26.6660   -4.4204  -24.1328 H   0  0  0  0  0  0  0  0  0  0  0  0
  -24.3785   -4.8699  -25.0049 H   0  0  0  0  0  0  0  0  0  0  0  0
  -27.8392   -5.1965  -22.3571 H   0  0  0  0  0  0  0  0  0  0  0  0
  1  3  1  0  0  0  0
  1 12  2  0  0  0  0
  2  4  2  0  0  0  0
  2 12  1  0  0  0  0
  3 14  2  0  0  0  0
  4 14  1  0  0  0  0
  5  8  1  0  0  0  0
  5 20  2  0  0  0  0
  6 15  2  0  0  0  0
  6 17  1  0  0  0  0
  7 18  1  0  0  0  0
  7 19  2  0  0  0  0
  8 29  2  0  0  0  0
  9 10  2  0  0  0  0
  9 28  1  0  0  0  0
 10 32  1  0  0  0  0
 11 16  1  0  0  0  0
 11 17  1  0  0  0  0
 11 18  2  0  0  0  0
 12 13  1  0  0  0  0
 13 15  1  0  0  0  0
 13 16  2  0  0  0  0
 14 25  1  0  0  0  0
 15 22  1  0  0  0  0
 16 23  1  0  0  0  0
 17 30  2  0  0  0  0
 18 33  1  0  0  0  0
 19 21  1  0  0  0  0
 19 30  1  0  0  0  0
 20 24  1  0  0  0  0
 20 33  1  0  0  0  0
 21 34  1  0  0  0  0
 21 35  2  0  0  0  0
 25 32  1  0  0  0  0
 26 27  1  0  0  0  0
 26 34  1  0  0  0  0
 27 36  1  0  0  0  0
 28 31  2  0  0  0  0
 29 33  1  0  0  0  0
 31 32  1  0  0  0  0
  1 37  1  0  0  0  0
  2 38  1  0  0  0  0
  3 39  1  0  0  0  0
  4 40  1  0  0  0  0
  5 41  1  0  0  0  0
  6 42  1  0  0  0  0
  7 43  1  0  0  0  0
  8 44  1  0  0  0  0
  9 45  1  0  0  0  0
 10 46  1  0  0  0  0
 22 47  1  0  0  0  0
 22 48  1  0  0  0  0
 22 49  1  0  0  0  0
 23 50  1  0  0  0  0
 23 51  1  0  0  0  0
 23 52  1  0  0  0  0
 24 53  1  0  0  0  0
 24 54  1  0  0  0  0
 24 55  1  0  0  0  0
 25 56  1  0  0  0  0
 25 57  1  0  0  0  0
 26 58  1  0  0  0  0
 26 59  1  0  0  0  0
 27 60  1  0  0  0  0
 27 61  1  0  0  0  0
 34 62  1  0  0  0  0
 36 63  1  0  0  0  0
M  END
> <SMILES>
Cc1cc2nc(cc(c2c(c1-c1ccc(cc1)Cn1ccnn1)C)-n1nccc1C)C(=O)NCCO

> <FORMATTED_ID>
H3D-005334

> <MOLFORMULA>
C27H27N7O2

> <Exact Mass>
481.22

> <XLogP>
2.83

> <TPSA_NOPS>
110.8

> <s_m_source_file>
ligprep_h3d.sdf

> <i_m_source_file_index>
789

> <i_lp_mmshare_version>
55123

> <i_f3d_flags>
0

> <s_epik_input>
W09IXVtDSDJdW0NIMl1bTkhdQyg9TyljKG4xKVtjSF1jKC1uMm5bY0hdW2NIXWMyW0NIM10pYyhjMTMpYyhbQ0gzXSljKGMoW0NIM10pW2NIXTMpLWM0W2NIXVtjSF1jKFtjSF1bY0hdNClbQ0gyXW41W2NIXVtjSF1ubjU=

> <s_epik_cmdline>
J2VwaWtfcHl0aG9uJywgJy1waHQnLCAnMC41JywgJy1waCcsICc3LjUnLCAnLXRuJywgJzgnLCAnLW1hJywgJzUwMCcsICctaW1hZScsICc8aW5maWxlLm1hZT4nLCAnLW9tYWUnLCAnPG91dGZpbGUubWFlPic=

> <r_lp_tautomer_probability>
1

> <r_epik_Ionization_Penalty>
1.98878e-05

> <r_epik_Ionization_Penalty_Charging>
0

> <r_epik_Ionization_Penalty_Neutral>
1.98878e-05

> <r_epik_State_Penalty>
-0

> <r_epik_Charging_Adjusted_Penalty>
0

> <i_epik_Tot_Q>
0

> <i_epik_Tot_abs_Q>
0

> <s_lp_Force_Field>
S-OPLS

> <r_lp_Energy>
50.6568

> <b_lp_Chiralities_Consistent>
1

> <s_lp_Variant>
ligprep_h3d.sdf:789-1

> <ROCS_ShapeQuery>
_7L13

> <ROCS_TanimotoCombo>
0.767 

> <ROCS_ShapeTanimoto>
0.618 

> <ROCS_ColorTanimoto>
0.149 

> <ROCS_RefTversky>
0.770 

> <ROCS_RefColorTversky>
0.315 

> <ROCS_RefTverskyCombo>
1.085 

> <ROCS_FitTversky>
0.758 

> <ROCS_FitColorTversky>
0.221 

> <ROCS_FitTverskyCombo>
0.979 

> <ROCS_ColorScore>
-2.901

> <ROCS_Overlap>
1279.479

> <ROCS_Rank>
530                 

$$$$
ligprep_h3d.sdf:4855_919
  -OEChem-08212117123D

 66 70  0     0  0  0  0  0  0999 V2000
  -19.3774   -7.3102  -36.3808 C   0  0  0  0  0  0  0  0  0  0  0  0
  -18.8806   -6.0152  -36.2336 C   0  0  0  0  0  0  0  0  0  0  0  0
  -20.3043   -7.8098  -35.4659 C   0  0  0  0  0  0  0  0  0  0  0  0
  -19.3106   -5.2197  -35.1716 C   0  0  0  0  0  0  0  0  0  0  0  0
  -20.7343   -7.0143  -34.4039 C   0  0  0  0  0  0  0  0  0  0  0  0
  -23.5529   -3.8698  -23.4243 C   0  0  0  0  0  0  0  0  0  0  0  0
  -24.6244   -4.9858  -25.2799 C   0  0  0  0  0  0  0  0  0  0  0  0
  -24.6614   -4.1395  -22.6219 C   0  0  0  0  0  0  0  0  0  0  0  0
  -25.7330   -5.2556  -24.4775 C   0  0  0  0  0  0  0  0  0  0  0  0
  -18.2592   -5.3935  -29.6242 C   0  0  0  0  0  0  0  0  0  0  0  0
  -21.0617   -5.1401  -29.6946 C   0  0  0  0  0  0  0  0  0  0  0  0
  -18.9713   -5.0483  -28.4793 C   0  0  0  0  0  0  0  0  0  0  0  0
  -20.2375   -5.7193  -34.2567 C   0  0  0  0  0  0  0  0  0  0  0  0
  -20.3629   -4.9225  -28.5137 C   0  0  0  0  0  0  0  0  0  0  0  0
  -23.5344   -4.2928  -24.7534 C   0  0  0  0  0  0  0  0  0  0  0  0
  -18.9554   -5.6130  -30.8116 C   0  0  0  0  0  0  0  0  0  0  0  0
  -20.3482   -5.4868  -30.8458 C   0  0  0  0  0  0  0  0  0  0  0  0
  -25.7515   -4.8325  -23.1484 C   0  0  0  0  0  0  0  0  0  0  0  0
  -22.2126   -4.3614  -26.9135 C   0  0  0  0  0  0  0  0  0  0  0  0
  -17.6931   -6.0099  -26.5306 C   0  0  0  0  0  0  0  0  0  0  0  0
  -17.4501   -3.5655  -27.1207 C   0  0  0  0  0  0  0  0  0  0  0  0
  -19.7090   -4.4513  -26.3122 C   0  0  0  0  0  0  0  0  0  0  0  0
  -17.0391   -5.7395  -25.1801 C   0  0  0  0  0  0  0  0  0  0  0  0
  -16.7985   -3.3126  -25.7658 C   0  0  0  0  0  0  0  0  0  0  0  0
  -18.4099   -4.7713  -27.1030 C   0  0  0  0  0  0  0  0  0  0  0  0
  -15.3311   -4.3353  -24.0303 C   0  0  0  0  0  0  0  0  0  0  0  0
  -16.8485   -6.0591  -31.8205 C   0  0  0  0  0  0  0  0  0  0  0  0
  -20.7003   -4.8642  -33.1138 C   0  0  0  0  0  0  0  0  0  0  0  0
  -20.8579   -4.5674  -27.2398 N   0  0  0  0  0  0  0  0  0  0  0  0
  -22.4079   -4.0185  -25.5691 N   0  0  0  0  0  0  0  0  0  0  0  0
  -16.0983   -4.5665  -25.3034 N   0  3  0  0  0  0  0  0  0  0  0  0
  -23.1267   -4.4728  -27.7302 O   0  0  0  0  0  0  0  0  0  0  0  0
  -18.2656   -5.9505  -31.9374 O   0  0  0  0  0  0  0  0  0  0  0  0
  -21.0280   -5.7024  -32.0085 O   0  0  0  0  0  0  0  0  0  0  0  0
  -26.8157   -5.0926  -22.3777 F   0  0  0  0  0  0  0  0  0  0  0  0
  -19.0434   -7.9290  -37.2086 H   0  0  0  0  0  0  0  0  0  0  0  0
  -18.1596   -5.6256  -36.9465 H   0  0  0  0  0  0  0  0  0  0  0  0
  -20.6921   -8.8176  -35.5808 H   0  0  0  0  0  0  0  0  0  0  0  0
  -18.9179   -4.2119  -35.0647 H   0  0  0  0  0  0  0  0  0  0  0  0
  -21.4566   -7.4120  -33.6959 H   0  0  0  0  0  0  0  0  0  0  0  0
  -22.7093   -3.3286  -23.0032 H   0  0  0  0  0  0  0  0  0  0  0  0
  -24.6220   -5.3182  -26.3149 H   0  0  0  0  0  0  0  0  0  0  0  0
  -24.6765   -3.8097  -21.5874 H   0  0  0  0  0  0  0  0  0  0  0  0
  -26.5813   -5.7961  -24.8868 H   0  0  0  0  0  0  0  0  0  0  0  0
  -17.1782   -5.4911  -29.5963 H   0  0  0  0  0  0  0  0  0  0  0  0
  -22.1398   -5.0512  -29.7557 H   0  0  0  0  0  0  0  0  0  0  0  0
  -16.9172   -6.3526  -27.2285 H   0  0  0  0  0  0  0  0  0  0  0  0
  -18.3947   -6.8482  -26.4299 H   0  0  0  0  0  0  0  0  0  0  0  0
  -17.9783   -2.6579  -27.4414 H   0  0  0  0  0  0  0  0  0  0  0  0
  -16.6560   -3.7264  -27.8624 H   0  0  0  0  0  0  0  0  0  0  0  0
  -19.8794   -5.1466  -25.4820 H   0  0  0  0  0  0  0  0  0  0  0  0
  -19.7136   -3.4344  -25.9030 H   0  0  0  0  0  0  0  0  0  0  0  0
  -17.7711   -5.5002  -24.4019 H   0  0  0  0  0  0  0  0  0  0  0  0
  -16.4450   -6.6036  -24.8647 H   0  0  0  0  0  0  0  0  0  0  0  0
  -16.0410   -2.5261  -25.8481 H   0  0  0  0  0  0  0  0  0  0  0  0
  -17.5270   -3.0341  -24.9972 H   0  0  0  0  0  0  0  0  0  0  0  0
  -16.0492   -4.0759  -23.2502 H   0  0  0  0  0  0  0  0  0  0  0  0
  -14.8027   -5.2588  -23.7863 H   0  0  0  0  0  0  0  0  0  0  0  0
  -14.6304   -3.5169  -24.2065 H   0  0  0  0  0  0  0  0  0  0  0  0
  -16.4222   -6.3332  -32.7886 H   0  0  0  0  0  0  0  0  0  0  0  0
  -16.6007   -6.8173  -31.0734 H   0  0  0  0  0  0  0  0  0  0  0  0
  -16.4428   -5.0946  -31.5063 H   0  0  0  0  0  0  0  0  0  0  0  0
  -19.9180   -4.1607  -32.8090 H   0  0  0  0  0  0  0  0  0  0  0  0
  -21.5839   -4.2824  -33.3979 H   0  0  0  0  0  0  0  0  0  0  0  0
  -21.6418   -3.4873  -25.0635 H   0  0  0  0  0  0  0  0  0  0  0  0
  -15.4017   -4.8088  -26.0216 H   0  0  0  0  0  0  0  0  0  0  0  0
  1  2  2  0  0  0  0
  1  3  1  0  0  0  0
  2  4  1  0  0  0  0
  3  5  2  0  0  0  0
  4 13  2  0  0  0  0
  5 13  1  0  0  0  0
  6  8  1  0  0  0  0
  6 15  2  0  0  0  0
  7  9  2  0  0  0  0
  7 15  1  0  0  0  0
  8 18  2  0  0  0  0
  9 18  1  0  0  0  0
 10 12  1  0  0  0  0
 10 16  2  0  0  0  0
 11 14  1  0  0  0  0
 11 17  2  0  0  0  0
 12 14  2  0  0  0  0
 12 25  1  0  0  0  0
 13 28  1  0  0  0  0
 14 29  1  0  0  0  0
 15 30  1  0  0  0  0
 16 17  1  0  0  0  0
 16 33  1  0  0  0  0
 17 34  1  0  0  0  0
 18 35  1  0  0  0  0
 19 29  1  0  0  0  0
 19 30  1  0  0  0  0
 19 32  2  0  0  0  0
 20 23  1  0  0  0  0
 20 25  1  0  0  0  0
 21 24  1  0  0  0  0
 21 25  1  0  0  0  0
 22 25  1  0  0  0  0
 22 29  1  0  0  0  0
 23 31  1  0  0  0  0
 24 31  1  0  0  0  0
 26 31  1  0  0  0  0
 27 33  1  0  0  0  0
 28 34  1  0  0  0  0
  1 36  1  0  0  0  0
  2 37  1  0  0  0  0
  3 38  1  0  0  0  0
  4 39  1  0  0  0  0
  5 40  1  0  0  0  0
  6 41  1  0  0  0  0
  7 42  1  0  0  0  0
  8 43  1  0  0  0  0
  9 44  1  0  0  0  0
 10 45  1  0  0  0  0
 11 46  1  0  0  0  0
 20 47  1  0  0  0  0
 20 48  1  0  0  0  0
 21 49  1  0  0  0  0
 21 50  1  0  0  0  0
 22 51  1  0  0  0  0
 22 52  1  0  0  0  0
 23 53  1  0  0  0  0
 23 54  1  0  0  0  0
 24 55  1  0  0  0  0
 24 56  1  0  0  0  0
 26 57  1  0  0  0  0
 26 58  1  0  0  0  0
 26 59  1  0  0  0  0
 27 60  1  0  0  0  0
 27 61  1  0  0  0  0
 27 62  1  0  0  0  0
 28 63  1  0  0  0  0
 28 64  1  0  0  0  0
 30 65  1  0  0  0  0
 31 66  1  0  0  0  0
M  CHG  1  31   1
M  END
> <SMILES>
COc1cc2c(cc1OCc1ccccc1)N(CC12CCN(C)CC1)C(=O)Nc1ccc(cc1)F

> <FORMATTED_ID>
H3D-007724

> <MOLFORMULA>
C28H30FN3O3

> <Exact Mass>
475.23

> <XLogP>
5.63

> <TPSA_NOPS>
54

> <s_m_source_file>
ligprep_h3d.sdf

> <i_m_source_file_index>
4855

> <i_lp_mmshare_version>
55123

> <i_f3d_flags>
0

> <s_epik_input>
W2NIXTFbY0hdW2NIXVtjSF1bY0hdYzFbQ0gyXU9jKGMoW2NIXTIpT1tDSDNdKVtjSF1jKGMyQzM0W0NIMl1bQ0gyXU4oW0NIM10pW0NIMl1bQ0gyXTQpTihbQ0gyXTMpQyg9TylbTkhdYzVbY0hdW2NIXWMoRilbY0hdW2NIXTU=

> <s_epik_cmdline>
J2VwaWtfcHl0aG9uJywgJy1waHQnLCAnMC41JywgJy1waCcsICc3LjUnLCAnLXRuJywgJzgnLCAnLW1hJywgJzUwMCcsICctaW1hZScsICc8aW5maWxlLm1hZT4nLCAnLW9tYWUnLCAnPG91dGZpbGUubWFlPic=

> <r_lp_tautomer_probability>
1

> <r_epik_Ionization_Penalty>
0.0108233

> <r_epik_Ionization_Penalty_Charging>
0.0108147

> <r_epik_Ionization_Penalty_Neutral>
8.61958e-06

> <r_epik_State_Penalty>
0.00829044

> <r_epik_Charging_Adjusted_Penalty>
0.0191051

> <i_epik_Tot_Q>
1

> <i_epik_Tot_abs_Q>
1

> <s_lp_Force_Field>
S-OPLS

> <r_lp_Energy>
75.9786

> <b_lp_Chiralities_Consistent>
1

> <s_lp_Variant>
ligprep_h3d.sdf:4855-1

> <ROCS_ShapeQuery>
_7L13

> <ROCS_TanimotoCombo>
0.697 

> <ROCS_ShapeTanimoto>
0.643 

> <ROCS_ColorTanimoto>
0.054 

> <ROCS_RefTversky>
0.770 

> <ROCS_RefColorTversky>
0.113 

> <ROCS_RefTverskyCombo>
0.882 

> <ROCS_FitTversky>
0.796 

> <ROCS_FitColorTversky>
0.094 

> <ROCS_FitTverskyCombo>
0.890 

> <ROCS_ColorScore>
-1.026

> <ROCS_Overlap>
1275.844

> <ROCS_Rank>
531                 

$$$$
ligprep_h3d.sdf:1235_17
  -OEChem-08212117123D

 57 63  0     1  0  0  0  0  0999 V2000
  -20.9905   -5.1594  -29.4984 C   0  0  0  0  0  0  0  0  0  0  0  0
  -21.7500   -4.3887  -30.3812 C   0  0  0  0  0  0  0  0  0  0  0  0
  -21.1025   -4.9113  -28.1091 C   0  0  0  0  0  0  0  0  0  0  0  0
  -21.9837   -3.9397  -27.5784 C   0  0  0  0  0  0  0  0  0  0  0  0
  -22.5810   -3.4214  -29.8600 C   0  0  0  0  0  0  0  0  0  0  0  0
  -22.7271   -3.1619  -28.4971 C   0  0  0  0  0  0  0  0  0  0  0  0
  -21.9416   -4.2818  -31.7713 C   0  0  0  0  0  0  0  0  0  0  0  0
  -18.8992   -3.8375  -26.2363 C   0  0  0  0  0  0  0  0  0  0  0  0
  -19.2491   -6.0411  -25.0021 C   0  0  0  0  0  0  0  0  0  0  0  0
  -17.0631   -5.1940  -25.8242 C   0  0  0  0  0  0  0  0  0  0  0  0
  -21.4072   -6.4523  -32.7849 C   0  0  0  0  0  0  0  0  0  0  0  0
  -20.2588   -5.7451  -27.1824 C   0  0  0  0  0  0  0  0  0  0  0  0
  -18.6670   -5.9322  -35.0660 C   0  0  0  0  0  0  0  0  0  0  0  0
  -19.8591   -5.8021  -35.9729 C   0  0  0  0  0  0  0  0  0  0  0  0
  -23.0455   -2.7873  -25.6476 C   0  0  0  0  0  0  0  0  0  0  0  0
  -20.4523   -4.5316  -33.7649 C   0  0  0  0  0  0  0  0  0  0  0  0
  -21.2051   -4.4629  -25.2321 C   0  0  2  0  0  0  0  0  0  0  0  0
  -23.4174   -3.0986  -24.1950 C   0  0  1  0  0  0  0  0  0  0  0  0
  -21.0428   -3.5242  -24.0006 C   0  0  2  0  0  0  0  0  0  0  0  0
  -19.8832   -4.9794  -25.8897 C   0  0  2  0  0  0  0  0  0  0  0  0
  -20.0397   -5.7618  -34.4835 C   0  0  0  0  0  0  0  0  0  0  0  0
  -24.4073   -4.2560  -24.0771 C   0  0  0  0  0  0  0  0  0  0  0  0
  -20.0854   -3.9952  -22.9132 C   0  0  0  0  0  0  0  0  0  0  0  0
  -22.8182   -3.3248  -32.0901 N   0  0  0  0  0  0  0  0  0  0  0  0
  -17.6390   -4.1937  -26.4922 N   0  5  0  0  0  0  0  0  0  0  0  0
  -17.8695   -6.0347  -25.0591 N   0  0  0  0  0  0  0  0  0  0  0  0
  -22.0919   -3.7591  -26.1973 N   0  0  3  0  0  0  0  0  0  0  0  0
  -21.3059   -5.0600  -32.7185 N   0  0  0  0  0  0  0  0  0  0  0  0
  -19.3020   -2.6831  -26.3774 O   0  0  0  0  0  0  0  0  0  0  0  0
  -19.8885   -6.8717  -24.3604 O   0  0  0  0  0  0  0  0  0  0  0  0
  -15.8506   -5.4188  -25.8691 O   0  0  0  0  0  0  0  0  0  0  0  0
  -22.0437   -7.2002  -32.0551 O   0  0  0  0  0  0  0  0  0  0  0  0
  -23.2203   -2.7798  -30.8762 O   0  0  0  0  0  0  0  0  0  0  0  0
  -20.6494   -6.8896  -33.8441 O   0  0  0  0  0  0  0  0  0  0  0  0
  -22.3069   -3.3644  -23.3431 O   0  0  0  0  0  0  0  0  0  0  0  0
  -23.4409   -1.6019  -28.1786 Cl  0  0  0  0  0  0  0  0  0  0  0  0
  -20.3193   -5.9275  -29.8717 H   0  0  0  0  0  0  0  0  0  0  0  0
  -20.8257   -6.6560  -26.9458 H   0  0  0  0  0  0  0  0  0  0  0  0
  -19.3499   -6.0731  -27.7039 H   0  0  0  0  0  0  0  0  0  0  0  0
  -18.1959   -6.9045  -34.9897 H   0  0  0  0  0  0  0  0  0  0  0  0
  -17.9790   -5.0967  -35.0215 H   0  0  0  0  0  0  0  0  0  0  0  0
  -19.9643   -4.8804  -36.5319 H   0  0  0  0  0  0  0  0  0  0  0  0
  -20.1881   -6.6875  -36.5030 H   0  0  0  0  0  0  0  0  0  0  0  0
  -23.9645   -2.8860  -26.2635 H   0  0  0  0  0  0  0  0  0  0  0  0
  -22.8223   -1.7180  -25.7543 H   0  0  0  0  0  0  0  0  0  0  0  0
  -19.6093   -4.0055  -33.3063 H   0  0  0  0  0  0  0  0  0  0  0  0
  -21.0355   -3.8499  -34.3916 H   0  0  0  0  0  0  0  0  0  0  0  0
  -21.7839   -5.3387  -24.8969 H   0  0  0  0  0  0  0  0  0  0  0  0
  -23.9620   -2.1891  -23.7620 H   0  0  0  0  0  0  0  0  0  0  0  0
  -20.7070   -2.5189  -24.3127 H   0  0  0  0  0  0  0  0  0  0  0  0
  -23.9619   -5.1694  -24.4716 H   0  0  0  0  0  0  0  0  0  0  0  0
  -25.3123   -4.0315  -24.6418 H   0  0  0  0  0  0  0  0  0  0  0  0
  -24.6727   -4.4147  -23.0318 H   0  0  0  0  0  0  0  0  0  0  0  0
  -20.3728   -4.9884  -22.5674 H   0  0  0  0  0  0  0  0  0  0  0  0
  -20.1113   -3.3060  -22.0690 H   0  0  0  0  0  0  0  0  0  0  0  0
  -19.0685   -4.0376  -23.3040 H   0  0  0  0  0  0  0  0  0  0  0  0
  -17.3899   -6.7175  -24.4802 H   0  0  0  0  0  0  0  0  0  0  0  0
  1  2  2  0  0  0  0
  1  3  1  0  0  0  0
  2  5  1  0  0  0  0
  2  7  1  0  0  0  0
  3  4  2  0  0  0  0
  3 12  1  0  0  0  0
  4  6  1  0  0  0  0
  4 27  1  0  0  0  0
  5  6  2  0  0  0  0
  5 33  1  0  0  0  0
  6 36  1  0  0  0  0
  7 24  2  0  0  0  0
  7 28  1  0  0  0  0
  8 20  1  0  0  0  0
  8 25  1  0  0  0  0
  8 29  2  0  0  0  0
  9 20  1  0  0  0  0
  9 26  1  0  0  0  0
  9 30  2  0  0  0  0
 10 25  1  0  0  0  0
 10 26  1  0  0  0  0
 10 31  2  0  0  0  0
 11 28  1  0  0  0  0
 11 32  2  0  0  0  0
 11 34  1  0  0  0  0
 12 20  1  0  0  0  0
 13 14  1  0  0  0  0
 13 21  1  0  0  0  0
 14 21  1  0  0  0  0
 15 18  1  0  0  0  0
 15 27  1  0  0  0  0
 16 21  1  0  0  0  0
 16 28  1  0  0  0  0
 17 19  1  0  0  0  0
 17 20  1  0  0  0  0
 17 27  1  0  0  0  0
 18 22  1  0  0  0  0
 18 35  1  0  0  0  0
 19 23  1  0  0  0  0
 19 35  1  0  0  0  0
 21 34  1  0  0  0  0
 24 33  1  0  0  0  0
  1 37  1  0  0  0  0
 12 38  1  0  0  0  0
 12 39  1  0  0  0  0
 13 40  1  0  0  0  0
 13 41  1  0  0  0  0
 14 42  1  0  0  0  0
 14 43  1  0  0  0  0
 15 44  1  0  0  0  0
 15 45  1  0  0  0  0
 16 46  1  0  0  0  0
 16 47  1  0  0  0  0
 17 48  1  0  0  0  0
 18 49  1  0  0  0  0
 19 50  1  0  0  0  0
 22 51  1  0  0  0  0
 22 52  1  0  0  0  0
 22 53  1  0  0  0  0
 23 54  1  0  0  0  0
 23 55  1  0  0  0  0
 23 56  1  0  0  0  0
 26 57  1  0  0  0  0
M  CHG  1  25  -1
M  END
> <SMILES>
C[C@@H]1CN2[C@H]([C@H](C)O1)C1(Cc3cc4c(noc4c(c32)Cl)N2CC3(CC3)OC2=O)C(=O)NC(=O)NC1=O

> <FORMATTED_ID>
H3D-008433

> <MOLFORMULA>
C23H22ClN5O7

> <Exact Mass>
515.12

> <XLogP>
1.3

> <TPSA_NOPS>
143.6

> <s_m_source_file>
ligprep_h3d.sdf

> <i_m_source_file_index>
1235

> <i_lp_mmshare_version>
55123

> <i_f3d_flags>
0

> <s_epik_input>
Tz1DMVtOSF1DKD1PKVtOSF1DKD1PKUMxMltDQEBIXTNOKFtDSDJdW0NAQEhdKFtDSDNdKU9bQ0BIXTNbQ0gzXSljNGMoW0NIMl0yKVtjSF1jNWMoYzRDbClvbmM1TihDKE82KT1PKVtDSDJdQzY3W0NIMl1bQ0gyXTc=

> <s_epik_cmdline>
J2VwaWtfcHl0aG9uJywgJy1waHQnLCAnMC41JywgJy1waCcsICc3LjUnLCAnLXRuJywgJzgnLCAnLW1hJywgJzUwMCcsICctaW1hZScsICc8aW5maWxlLm1hZT4nLCAnLW9tYWUnLCAnPG91dGZpbGUubWFlPic=

> <r_lp_tautomer_probability>
1

> <r_epik_Ionization_Penalty>
0.455389

> <r_epik_Ionization_Penalty_Charging>
0.455373

> <r_epik_Ionization_Penalty_Neutral>
1.52236e-05

> <r_epik_State_Penalty>
0.458483

> <r_epik_Charging_Adjusted_Penalty>
0.913857

> <i_epik_Tot_Q>
-1

> <i_epik_Tot_abs_Q>
1

> <s_epik_Chemistry_Notes>
This compound has an ester and may undergo hydrolysis at high or low pH.

> <s_lp_Force_Field>
S-OPLS

> <r_lp_Energy>
55.2798

> <b_lp_Chiralities_Consistent>
1

> <s_lp_Variant>
ligprep_h3d.sdf:1235-2

> <ROCS_ShapeQuery>
_7L13

> <ROCS_TanimotoCombo>
0.740 

> <ROCS_ShapeTanimoto>
0.609 

> <ROCS_ColorTanimoto>
0.130 

> <ROCS_RefTversky>
0.770 

> <ROCS_RefColorTversky>
0.298 

> <ROCS_RefTverskyCombo>
1.068 

> <ROCS_FitTversky>
0.745 

> <ROCS_FitColorTversky>
0.188 

> <ROCS_FitTverskyCombo>
0.934 

> <ROCS_ColorScore>
-2.774

> <ROCS_Overlap>
1280.321

> <ROCS_Rank>
532                 

$$$$
ligprep_h3d.sdf:1054_1087
  -OEChem-08212117123D

 67 72  0     1  0  0  0  0  0999 V2000
  -22.1194   -3.9957  -27.1947 C   0  0  0  0  0  0  0  0  0  0  0  0
  -23.1743   -2.8964  -31.5133 C   0  0  0  0  0  0  0  0  0  0  0  0
  -21.1059   -4.3732  -28.0789 C   0  0  0  0  0  0  0  0  0  0  0  0
  -21.9224   -4.1851  -25.8048 C   0  0  0  0  0  0  0  0  0  0  0  0
  -20.7227   -4.7368  -25.2850 C   0  0  0  0  0  0  0  0  0  0  0  0
  -19.9462   -4.9072  -27.5608 C   0  0  0  0  0  0  0  0  0  0  0  0
  -19.7101   -5.1040  -26.2006 C   0  0  0  0  0  0  0  0  0  0  0  0
  -20.8812   -4.3688  -29.4683 C   0  0  0  0  0  0  0  0  0  0  0  0
  -21.7707   -4.4221  -31.7564 C   0  0  0  0  0  0  0  0  0  0  0  0
  -23.4945   -5.6265  -23.3101 C   0  0  0  0  0  0  0  0  0  0  0  0
  -23.7026   -3.1890  -22.5953 C   0  0  0  0  0  0  0  0  0  0  0  0
  -25.5841   -4.8018  -22.7036 C   0  0  0  0  0  0  0  0  0  0  0  0
  -23.0402   -3.7227  -24.8946 C   0  0  0  0  0  0  0  0  0  0  0  0
  -19.4400   -5.6265  -23.3295 C   0  0  0  0  0  0  0  0  0  0  0  0
  -21.4059   -4.0967  -23.0124 C   0  0  2  0  0  0  0  0  0  0  0  0
  -19.8768   -6.4254  -22.0985 C   0  0  1  0  0  0  0  0  0  0  0  0
  -21.1449   -4.4372  -21.5206 C   0  0  2  0  0  0  0  0  0  0  0  0
  -22.9144   -4.1972  -23.4224 C   0  0  2  0  0  0  0  0  0  0  0  0
  -18.6906   -6.7759  -21.2065 C   0  0  0  0  0  0  0  0  0  0  0  0
  -20.0593   -3.5695  -20.8799 C   0  0  0  0  0  0  0  0  0  0  0  0
  -20.1730   -7.7790  -35.6598 C   0  0  0  0  0  0  0  0  0  0  0  0
  -18.7889   -5.7205  -35.8774 C   0  0  0  0  0  0  0  0  0  0  0  0
  -20.6241   -5.7252  -33.5489 C   0  0  0  0  0  0  0  0  0  0  0  0
  -19.3800   -6.5903  -33.6202 C   0  0  0  0  0  0  0  0  0  0  0  0
  -22.6881   -3.7759  -32.4378 N   0  0  0  0  0  0  0  0  0  0  0  0
  -22.6154   -2.9577  -30.3028 N   0  0  0  0  0  0  0  0  0  0  0  0
  -19.6807   -4.8604  -29.7894 N   0  0  0  0  0  0  0  0  0  0  0  0
  -24.8240   -5.7365  -23.2735 N   0  5  0  0  0  0  0  0  0  0  0  0
  -21.7212   -3.9412  -30.4852 N   0  0  0  0  0  0  0  0  0  0  0  0
  -24.9906   -3.6005  -22.3263 N   0  0  0  0  0  0  0  0  0  0  0  0
  -20.5758   -4.9198  -23.9067 N   0  0  1  0  0  0  0  0  0  0  0  0
  -20.9506   -5.4217  -32.1566 N   0  0  0  0  0  0  0  0  0  0  0  0
  -19.0899   -6.9351  -35.0339 N   0  3  0  0  0  0  0  0  0  0  0  0
  -22.7595   -6.6105  -23.3770 O   0  0  0  0  0  0  0  0  0  0  0  0
  -23.2665   -2.0914  -22.2546 O   0  0  0  0  0  0  0  0  0  0  0  0
  -26.7928   -4.9513  -22.5050 O   0  0  0  0  0  0  0  0  0  0  0  0
  -19.0894   -5.1987  -28.5778 O   0  0  0  0  0  0  0  0  0  0  0  0
  -20.8909   -5.8195  -21.3033 O   0  0  0  0  0  0  0  0  0  0  0  0
  -18.5804   -5.7223  -25.8408 F   0  0  0  0  0  0  0  0  0  0  0  0
  -23.0486   -3.5722  -27.5688 H   0  0  0  0  0  0  0  0  0  0  0  0
  -23.9607   -2.1884  -31.7287 H   0  0  0  0  0  0  0  0  0  0  0  0
  -23.0659   -2.6155  -24.9460 H   0  0  0  0  0  0  0  0  0  0  0  0
  -24.0118   -4.0524  -25.3140 H   0  0  0  0  0  0  0  0  0  0  0  0
  -18.6919   -4.8720  -23.0315 H   0  0  0  0  0  0  0  0  0  0  0  0
  -18.9086   -6.3109  -23.9982 H   0  0  0  0  0  0  0  0  0  0  0  0
  -21.1007   -3.0551  -23.1807 H   0  0  0  0  0  0  0  0  0  0  0  0
  -20.2889   -7.4343  -22.4580 H   0  0  0  0  0  0  0  0  0  0  0  0
  -22.0961   -4.1845  -20.9325 H   0  0  0  0  0  0  0  0  0  0  0  0
  -18.2344   -5.8654  -20.8176 H   0  0  0  0  0  0  0  0  0  0  0  0
  -17.9447   -7.3287  -21.7778 H   0  0  0  0  0  0  0  0  0  0  0  0
  -19.0220   -7.3907  -20.3695 H   0  0  0  0  0  0  0  0  0  0  0  0
  -19.1042   -3.7404  -21.3765 H   0  0  0  0  0  0  0  0  0  0  0  0
  -19.9583   -3.8185  -19.8236 H   0  0  0  0  0  0  0  0  0  0  0  0
  -20.3222   -2.5156  -20.9715 H   0  0  0  0  0  0  0  0  0  0  0  0
  -21.0946   -7.1941  -35.6586 H   0  0  0  0  0  0  0  0  0  0  0  0
  -19.8623   -8.0202  -36.6781 H   0  0  0  0  0  0  0  0  0  0  0  0
  -20.2816   -8.6834  -35.0580 H   0  0  0  0  0  0  0  0  0  0  0  0
  -19.6785   -5.0880  -35.8813 H   0  0  0  0  0  0  0  0  0  0  0  0
  -17.9406   -5.2023  -35.4263 H   0  0  0  0  0  0  0  0  0  0  0  0
  -18.5479   -6.0649  -36.8849 H   0  0  0  0  0  0  0  0  0  0  0  0
  -20.4870   -4.7849  -34.0931 H   0  0  0  0  0  0  0  0  0  0  0  0
  -21.4744   -6.2538  -33.9916 H   0  0  0  0  0  0  0  0  0  0  0  0
  -19.5222   -7.5364  -33.0903 H   0  0  0  0  0  0  0  0  0  0  0  0
  -18.4941   -6.0798  -33.2305 H   0  0  0  0  0  0  0  0  0  0  0  0
  -25.5698   -2.9570  -21.7949 H   0  0  0  0  0  0  0  0  0  0  0  0
  -20.5089   -6.0325  -31.4553 H   0  0  0  0  0  0  0  0  0  0  0  0
  -18.2323   -7.5134  -35.0489 H   0  0  0  0  0  0  0  0  0  0  0  0
  1  3  2  0  0  0  0
  1  4  1  0  0  0  0
  2 25  1  0  0  0  0
  2 26  2  0  0  0  0
  3  6  1  0  0  0  0
  3  8  1  0  0  0  0
  4  5  2  0  0  0  0
  4 13  1  0  0  0  0
  5  7  1  0  0  0  0
  5 31  1  0  0  0  0
  6  7  2  0  0  0  0
  6 37  1  0  0  0  0
  7 39  1  0  0  0  0
  8 27  2  0  0  0  0
  8 29  1  0  0  0  0
  9 25  2  0  0  0  0
  9 29  1  0  0  0  0
  9 32  1  0  0  0  0
 10 18  1  0  0  0  0
 10 28  1  0  0  0  0
 10 34  2  0  0  0  0
 11 18  1  0  0  0  0
 11 30  1  0  0  0  0
 11 35  2  0  0  0  0
 12 28  1  0  0  0  0
 12 30  1  0  0  0  0
 12 36  2  0  0  0  0
 13 18  1  0  0  0  0
 14 16  1  0  0  0  0
 14 31  1  0  0  0  0
 15 17  1  0  0  0  0
 15 18  1  0  0  0  0
 15 31  1  0  0  0  0
 16 19  1  0  0  0  0
 16 38  1  0  0  0  0
 17 20  1  0  0  0  0
 17 38  1  0  0  0  0
 21 33  1  0  0  0  0
 22 33  1  0  0  0  0
 23 24  1  0  0  0  0
 23 32  1  0  0  0  0
 24 33  1  0  0  0  0
 26 29  1  0  0  0  0
 27 37  1  0  0  0  0
  1 40  1  0  0  0  0
  2 41  1  0  0  0  0
 13 42  1  0  0  0  0
 13 43  1  0  0  0  0
 14 44  1  0  0  0  0
 14 45  1  0  0  0  0
 15 46  1  0  0  0  0
 16 47  1  0  0  0  0
 17 48  1  0  0  0  0
 19 49  1  0  0  0  0
 19 50  1  0  0  0  0
 19 51  1  0  0  0  0
 20 52  1  0  0  0  0
 20 53  1  0  0  0  0
 20 54  1  0  0  0  0
 21 55  1  0  0  0  0
 21 56  1  0  0  0  0
 21 57  1  0  0  0  0
 22 58  1  0  0  0  0
 22 59  1  0  0  0  0
 22 60  1  0  0  0  0
 23 61  1  0  0  0  0
 23 62  1  0  0  0  0
 24 63  1  0  0  0  0
 24 64  1  0  0  0  0
 30 65  1  0  0  0  0
 32 66  1  0  0  0  0
 33 67  1  0  0  0  0
M  CHG  2  28  -1  33   1
M  END
> <SMILES>
C[C@@H]1CN2[C@H]([C@H](C)O1)C1(Cc3cc4c(noc4c(c32)F)-n2ncnc2NCCN(C)C)C(=O)NC(=O)NC1=O

> <FORMATTED_ID>
H3D-006616

> <MOLFORMULA>
C24H28FN9O5

> <Exact Mass>
541.22

> <XLogP>
1.01

> <TPSA_NOPS>
160

> <s_m_source_file>
ligprep_h3d.sdf

> <i_m_source_file_index>
1054

> <i_lp_mmshare_version>
55123

> <i_f3d_flags>
0

> <s_epik_input>
Tz1DMVtOSF1DKD1PKVtOSF1DKD1PKUMxMltDQEBIXTNOKFtDSDJdW0NAQEhdKFtDSDNdKU9bQ0BIXTNbQ0gzXSljNGMoW0NIMl0yKVtjSF1jNWMoYzRGKW9uYzUtbjZuW2NIXW5jNltOSF1bQ0gyXVtDSDJdTihbQ0gzXSlbQ0gzXQ==

> <s_epik_cmdline>
J2VwaWtfcHl0aG9uJywgJy1waHQnLCAnMC41JywgJy1waCcsICc3LjUnLCAnLXRuJywgJzgnLCAnLW1hJywgJzUwMCcsICctaW1hZScsICc8aW5maWxlLm1hZT4nLCAnLW9tYWUnLCAnPG91dGZpbGUubWFlPic=

> <r_lp_tautomer_probability>
1

> <r_epik_Ionization_Penalty>
0.478108

> <r_epik_Ionization_Penalty_Charging>
0.467116

> <r_epik_Ionization_Penalty_Neutral>
0.0109919

> <r_epik_State_Penalty>
0.458483

> <r_epik_Charging_Adjusted_Penalty>
0.9256

> <i_epik_Tot_Q>
0

> <i_epik_Tot_abs_Q>
2

> <s_lp_Force_Field>
S-OPLS

> <r_lp_Energy>
66.1272

> <b_lp_Chiralities_Consistent>
1

> <s_lp_Variant>
ligprep_h3d.sdf:1054-2

> <ROCS_ShapeQuery>
_7L13

> <ROCS_TanimotoCombo>
0.735 

> <ROCS_ShapeTanimoto>
0.577 

> <ROCS_ColorTanimoto>
0.158 

> <ROCS_RefTversky>
0.770 

> <ROCS_RefColorTversky>
0.402 

> <ROCS_RefTverskyCombo>
1.172 

> <ROCS_FitTversky>
0.697 

> <ROCS_FitColorTversky>
0.206 

> <ROCS_FitTverskyCombo>
0.904 

> <ROCS_ColorScore>
-3.822

> <ROCS_Overlap>
1285.307

> <ROCS_Rank>
533                 

$$$$
ligprep_h3d.sdf:883_1446
  -OEChem-08212117123D

 62 66  0     0  0  0  0  0  0999 V2000
  -19.4397   -3.9024  -32.2629 C   0  0  0  0  0  0  0  0  0  0  0  0
  -20.0463   -6.2382  -32.1471 C   0  0  0  0  0  0  0  0  0  0  0  0
  -18.8147   -4.1255  -33.4898 C   0  0  0  0  0  0  0  0  0  0  0  0
  -19.4213   -6.4613  -33.3741 C   0  0  0  0  0  0  0  0  0  0  0  0
  -16.7455   -6.1946  -26.3536 C   0  0  0  0  0  0  0  0  0  0  0  0
  -22.6857   -4.1498  -29.0583 C   0  0  0  0  0  0  0  0  0  0  0  0
  -20.6136   -4.5098  -25.4741 C   0  0  0  0  0  0  0  0  0  0  0  0
  -16.5375   -4.8045  -26.4328 C   0  0  0  0  0  0  0  0  0  0  0  0
  -20.5341   -6.2990  -37.7717 C   0  0  0  0  0  0  0  0  0  0  0  0
  -20.6402   -4.6229  -27.8889 C   0  0  0  0  0  0  0  0  0  0  0  0
  -20.0554   -4.9588  -31.5915 C   0  0  0  0  0  0  0  0  0  0  0  0
  -20.7065   -4.7263  -30.3130 C   0  0  0  0  0  0  0  0  0  0  0  0
  -18.8056   -5.4049  -34.0454 C   0  0  0  0  0  0  0  0  0  0  0  0
  -22.0505   -4.3756  -30.2820 C   0  0  0  0  0  0  0  0  0  0  0  0
  -20.0010   -4.8501  -29.1195 C   0  0  0  0  0  0  0  0  0  0  0  0
  -22.0046   -4.2668  -27.8498 C   0  0  0  0  0  0  0  0  0  0  0  0
  -19.9540   -4.7406  -26.6726 C   0  0  0  0  0  0  0  0  0  0  0  0
  -21.9488   -4.1662  -25.5364 C   0  0  0  0  0  0  0  0  0  0  0  0
  -18.1083   -6.3432  -26.4374 C   0  0  0  0  0  0  0  0  0  0  0  0
  -22.6989   -3.9126  -24.3183 C   0  0  0  0  0  0  0  0  0  0  0  0
  -22.8549   -4.2277  -31.5344 C   0  0  0  0  0  0  0  0  0  0  0  0
  -18.5515   -5.2321  -29.2317 C   0  0  0  0  0  0  0  0  0  0  0  0
  -18.9445   -7.5594  -26.4133 C   0  0  0  0  0  0  0  0  0  0  0  0
  -18.1372   -5.6435  -35.3570 C   0  0  0  0  0  0  0  0  0  0  0  0
  -24.9522   -3.9841  -23.2190 C   0  0  0  0  0  0  0  0  0  0  0  0
  -26.0784   -5.0012  -23.2515 C   0  0  0  0  0  0  0  0  0  0  0  0
  -17.6770   -4.1190  -26.5576 N   0  0  0  0  0  0  0  0  0  0  0  0
  -20.0507   -7.5627  -37.6047 N   0  0  0  0  0  0  0  0  0  0  0  0
  -19.9416   -5.3827  -37.0018 N   0  0  0  0  0  0  0  0  0  0  0  0
  -22.6473   -4.0421  -26.6882 N   0  0  0  0  0  0  0  0  0  0  0  0
  -19.0988   -7.4713  -36.6843 N   0  0  0  0  0  0  0  0  0  0  0  0
  -18.6141   -5.0823  -26.5575 N   0  0  0  0  0  0  0  0  0  0  0  0
  -19.0699   -6.1716  -36.3581 N   0  0  0  0  0  0  0  0  0  0  0  0
  -24.0686   -4.2032  -24.3415 N   0  0  0  0  0  0  0  0  0  0  0  0
  -22.1352   -3.4380  -23.3153 O   0  0  0  0  0  0  0  0  0  0  0  0
  -26.9249   -4.8045  -22.1260 O   0  0  0  0  0  0  0  0  0  0  0  0
  -19.4377   -2.8995  -31.8425 H   0  0  0  0  0  0  0  0  0  0  0  0
  -20.5225   -7.0717  -31.6363 H   0  0  0  0  0  0  0  0  0  0  0  0
  -18.3365   -3.2969  -34.0053 H   0  0  0  0  0  0  0  0  0  0  0  0
  -19.4195   -7.4613  -33.7999 H   0  0  0  0  0  0  0  0  0  0  0  0
  -16.0086   -6.9776  -26.2505 H   0  0  0  0  0  0  0  0  0  0  0  0
  -23.7401   -3.8756  -29.0490 H   0  0  0  0  0  0  0  0  0  0  0  0
  -20.1053   -4.5942  -24.5174 H   0  0  0  0  0  0  0  0  0  0  0  0
  -15.6031   -4.2626  -26.4050 H   0  0  0  0  0  0  0  0  0  0  0  0
  -21.3251   -6.0412  -38.4588 H   0  0  0  0  0  0  0  0  0  0  0  0
  -22.7988   -3.1965  -31.8994 H   0  0  0  0  0  0  0  0  0  0  0  0
  -22.4885   -4.8990  -32.3197 H   0  0  0  0  0  0  0  0  0  0  0  0
  -23.9067   -4.4821  -31.3594 H   0  0  0  0  0  0  0  0  0  0  0  0
  -18.4527   -6.3202  -29.2099 H   0  0  0  0  0  0  0  0  0  0  0  0
  -18.1226   -4.8528  -30.1634 H   0  0  0  0  0  0  0  0  0  0  0  0
  -17.9740   -4.8040  -28.4076 H   0  0  0  0  0  0  0  0  0  0  0  0
  -19.2400   -7.8179  -25.3833 H   0  0  0  0  0  0  0  0  0  0  0  0
  -19.8671   -7.4390  -27.0065 H   0  0  0  0  0  0  0  0  0  0  0  0
  -18.4194   -8.4310  -26.8403 H   0  0  0  0  0  0  0  0  0  0  0  0
  -17.6967   -4.7202  -35.7661 H   0  0  0  0  0  0  0  0  0  0  0  0
  -17.3042   -6.3591  -35.2681 H   0  0  0  0  0  0  0  0  0  0  0  0
  -25.3387   -2.9619  -23.2811 H   0  0  0  0  0  0  0  0  0  0  0  0
  -24.3687   -4.0912  -22.2996 H   0  0  0  0  0  0  0  0  0  0  0  0
  -25.6697   -6.0148  -23.1938 H   0  0  0  0  0  0  0  0  0  0  0  0
  -26.6776   -4.9092  -24.1632 H   0  0  0  0  0  0  0  0  0  0  0  0
  -24.4911   -4.5292  -25.2047 H   0  0  0  0  0  0  0  0  0  0  0  0
  -27.6276   -5.4715  -22.1850 H   0  0  0  0  0  0  0  0  0  0  0  0
  1  3  1  0  0  0  0
  1 11  2  0  0  0  0
  2  4  2  0  0  0  0
  2 11  1  0  0  0  0
  3 13  2  0  0  0  0
  4 13  1  0  0  0  0
  5  8  1  0  0  0  0
  5 19  2  0  0  0  0
  6 14  2  0  0  0  0
  6 16  1  0  0  0  0
  7 17  1  0  0  0  0
  7 18  2  0  0  0  0
  8 27  2  0  0  0  0
  9 28  1  0  0  0  0
  9 29  2  0  0  0  0
 10 15  1  0  0  0  0
 10 16  1  0  0  0  0
 10 17  2  0  0  0  0
 11 12  1  0  0  0  0
 12 14  1  0  0  0  0
 12 15  2  0  0  0  0
 13 24  1  0  0  0  0
 14 21  1  0  0  0  0
 15 22  1  0  0  0  0
 16 30  2  0  0  0  0
 17 32  1  0  0  0  0
 18 20  1  0  0  0  0
 18 30  1  0  0  0  0
 19 23  1  0  0  0  0
 19 32  1  0  0  0  0
 20 34  1  0  0  0  0
 20 35  2  0  0  0  0
 24 33  1  0  0  0  0
 25 26  1  0  0  0  0
 25 34  1  0  0  0  0
 26 36  1  0  0  0  0
 27 32  1  0  0  0  0
 28 31  2  0  0  0  0
 29 33  1  0  0  0  0
 31 33  1  0  0  0  0
  1 37  1  0  0  0  0
  2 38  1  0  0  0  0
  3 39  1  0  0  0  0
  4 40  1  0  0  0  0
  5 41  1  0  0  0  0
  6 42  1  0  0  0  0
  7 43  1  0  0  0  0
  8 44  1  0  0  0  0
  9 45  1  0  0  0  0
 21 46  1  0  0  0  0
 21 47  1  0  0  0  0
 21 48  1  0  0  0  0
 22 49  1  0  0  0  0
 22 50  1  0  0  0  0
 22 51  1  0  0  0  0
 23 52  1  0  0  0  0
 23 53  1  0  0  0  0
 23 54  1  0  0  0  0
 24 55  1  0  0  0  0
 24 56  1  0  0  0  0
 25 57  1  0  0  0  0
 25 58  1  0  0  0  0
 26 59  1  0  0  0  0
 26 60  1  0  0  0  0
 34 61  1  0  0  0  0
 36 62  1  0  0  0  0
M  END
> <SMILES>
Cc1cc2nc(cc(c2c(c1-c1ccc(cc1)Cn1ncnn1)C)-n1nccc1C)C(=O)NCCO

> <FORMATTED_ID>
H3D-005770

> <MOLFORMULA>
C26H26N8O2

> <Exact Mass>
482.22

> <XLogP>
2.51

> <TPSA_NOPS>
123.6

> <s_m_source_file>
ligprep_h3d.sdf

> <i_m_source_file_index>
883

> <i_lp_mmshare_version>
55123

> <i_f3d_flags>
0

> <s_epik_input>
W09IXVtDSDJdW0NIMl1bTkhdQyg9TyljKG4xKVtjSF1jKC1uMm5bY0hdW2NIXWMyW0NIM10pYyhjMTMpYyhbQ0gzXSljKGMoW0NIM10pW2NIXTMpLWM0W2NIXVtjSF1jKFtjSF1bY0hdNClbQ0gyXW41bltjSF1ubjU=

> <s_epik_cmdline>
J2VwaWtfcHl0aG9uJywgJy1waHQnLCAnMC41JywgJy1waCcsICc3LjUnLCAnLXRuJywgJzgnLCAnLW1hJywgJzUwMCcsICctaW1hZScsICc8aW5maWxlLm1hZT4nLCAnLW9tYWUnLCAnPG91dGZpbGUubWFlPic=

> <r_lp_tautomer_probability>
1

> <r_epik_Ionization_Penalty>
1.87718e-05

> <r_epik_Ionization_Penalty_Charging>
0

> <r_epik_Ionization_Penalty_Neutral>
1.87718e-05

> <r_epik_State_Penalty>
-0

> <r_epik_Charging_Adjusted_Penalty>
0

> <i_epik_Tot_Q>
0

> <i_epik_Tot_abs_Q>
0

> <s_lp_Force_Field>
S-OPLS

> <r_lp_Energy>
50.9565

> <b_lp_Chiralities_Consistent>
1

> <s_lp_Variant>
ligprep_h3d.sdf:883-1

> <ROCS_ShapeQuery>
_7L13

> <ROCS_TanimotoCombo>
0.758 

> <ROCS_ShapeTanimoto>
0.617 

> <ROCS_ColorTanimoto>
0.142 

> <ROCS_RefTversky>
0.770 

> <ROCS_RefColorTversky>
0.313 

> <ROCS_RefTverskyCombo>
1.082 

> <ROCS_FitTversky>
0.757 

> <ROCS_FitColorTversky>
0.205 

> <ROCS_FitTverskyCombo>
0.962 

> <ROCS_ColorScore>
-2.898

> <ROCS_Overlap>
1279.108

> <ROCS_Rank>
534                 

$$$$
ligprep_h3d.sdf:1445_1774
  -OEChem-08212117123D

 64 67  0     1  0  0  0  0  0999 V2000
  -19.9725   -4.0410  -32.2365 C   0  0  0  0  0  0  0  0  0  0  0  0
  -20.6087   -6.3635  -32.0407 C   0  0  0  0  0  0  0  0  0  0  0  0
  -19.4218   -4.2977  -33.4920 C   0  0  0  0  0  0  0  0  0  0  0  0
  -20.0580   -6.6202  -33.2963 C   0  0  0  0  0  0  0  0  0  0  0  0
  -16.9843   -6.2675  -26.4446 C   0  0  0  0  0  0  0  0  0  0  0  0
  -23.0350   -4.1728  -28.8496 C   0  0  0  0  0  0  0  0  0  0  0  0
  -20.7689   -4.5008  -25.3816 C   0  0  0  0  0  0  0  0  0  0  0  0
  -16.7590   -4.8829  -26.5628 C   0  0  0  0  0  0  0  0  0  0  0  0
  -20.9342   -4.6587  -27.7884 C   0  0  0  0  0  0  0  0  0  0  0  0
  -20.5659   -5.0739  -31.5108 C   0  0  0  0  0  0  0  0  0  0  0  0
  -21.1396   -4.8064  -30.2024 C   0  0  0  0  0  0  0  0  0  0  0  0
  -19.4646   -5.5872  -34.0220 C   0  0  0  0  0  0  0  0  0  0  0  0
  -22.4739   -4.4324  -30.1025 C   0  0  0  0  0  0  0  0  0  0  0  0
  -20.3696   -4.9198  -29.0484 C   0  0  0  0  0  0  0  0  0  0  0  0
  -22.2883   -4.2787  -27.6794 C   0  0  0  0  0  0  0  0  0  0  0  0
  -20.1821   -4.7653  -26.6107 C   0  0  0  0  0  0  0  0  0  0  0  0
  -22.0998   -4.1358  -25.3752 C   0  0  0  0  0  0  0  0  0  0  0  0
  -18.3519   -6.3944  -26.4485 C   0  0  0  0  0  0  0  0  0  0  0  0
  -22.7754   -3.8466  -24.1220 C   0  0  0  0  0  0  0  0  0  0  0  0
  -19.9368   -6.3935  -36.3226 C   0  0  0  0  0  0  0  0  0  0  0  0
  -23.3456   -4.2942  -31.3102 C   0  0  0  0  0  0  0  0  0  0  0  0
  -18.9351   -5.3285  -29.2346 C   0  0  0  0  0  0  0  0  0  0  0  0
  -19.2046   -7.5955  -26.3533 C   0  0  0  0  0  0  0  0  0  0  0  0
  -25.5455   -6.3006  -22.7220 C   0  0  0  0  0  0  0  0  0  0  0  0
  -24.9636   -3.8591  -22.8961 C   0  0  0  0  0  0  0  0  0  0  0  0
  -24.9772   -5.0902  -21.9935 C   0  0  2  0  0  0  0  0  0  0  0  0
  -18.8756   -5.8618  -35.3643 C   0  0  0  0  0  0  0  0  0  0  0  0
  -17.8927   -4.1805  -26.6365 N   0  0  0  0  0  0  0  0  0  0  0  0
  -22.8605   -4.0214  -26.4880 N   0  0  0  0  0  0  0  0  0  0  0  0
  -18.8435   -5.1275  -26.5646 N   0  0  0  0  0  0  0  0  0  0  0  0
  -20.5878   -5.4074  -37.0275 N   0  0  0  0  0  0  0  0  0  0  0  0
  -24.1488   -4.1142  -24.0622 N   0  0  0  0  0  0  0  0  0  0  0  0
  -22.1483   -3.3630  -23.1619 O   0  0  0  0  0  0  0  0  0  0  0  0
  -20.1486   -7.5951  -36.4684 O   0  0  0  0  0  0  0  0  0  0  0  0
  -23.6375   -5.3821  -21.6004 O   0  0  0  0  0  0  0  0  0  0  0  0
  -17.8221   -6.7452  -35.3096 F   0  0  0  0  0  0  0  0  0  0  0  0
  -18.3179   -4.7368  -35.9275 F   0  0  0  0  0  0  0  0  0  0  0  0
  -19.9307   -3.0306  -31.8367 H   0  0  0  0  0  0  0  0  0  0  0  0
  -21.0684   -7.1790  -31.4875 H   0  0  0  0  0  0  0  0  0  0  0  0
  -18.9604   -3.4871  -34.0499 H   0  0  0  0  0  0  0  0  0  0  0  0
  -20.0963   -7.6278  -33.7018 H   0  0  0  0  0  0  0  0  0  0  0  0
  -16.2553   -7.0610  -26.3678 H   0  0  0  0  0  0  0  0  0  0  0  0
  -24.0826   -3.8806  -28.7863 H   0  0  0  0  0  0  0  0  0  0  0  0
  -20.2086   -4.5759  -24.4537 H   0  0  0  0  0  0  0  0  0  0  0  0
  -15.8159   -4.3567  -26.5984 H   0  0  0  0  0  0  0  0  0  0  0  0
  -23.2939   -3.2712  -31.6980 H   0  0  0  0  0  0  0  0  0  0  0  0
  -23.0351   -4.9863  -32.1015 H   0  0  0  0  0  0  0  0  0  0  0  0
  -24.3898   -4.5273  -31.0711 H   0  0  0  0  0  0  0  0  0  0  0  0
  -18.8525   -6.4176  -29.1970 H   0  0  0  0  0  0  0  0  0  0  0  0
  -18.5538   -4.9741  -30.1963 H   0  0  0  0  0  0  0  0  0  0  0  0
  -18.3050   -4.8949  -28.4530 H   0  0  0  0  0  0  0  0  0  0  0  0
  -19.4453   -7.8296  -25.3034 H   0  0  0  0  0  0  0  0  0  0  0  0
  -20.1573   -7.4706  -26.8957 H   0  0  0  0  0  0  0  0  0  0  0  0
  -18.7185   -8.4838  -26.7919 H   0  0  0  0  0  0  0  0  0  0  0  0
  -24.9804   -6.5179  -23.6336 H   0  0  0  0  0  0  0  0  0  0  0  0
  -25.5316   -7.1876  -22.0789 H   0  0  0  0  0  0  0  0  0  0  0  0
  -26.5920   -6.1271  -22.9954 H   0  0  0  0  0  0  0  0  0  0  0  0
  -25.9772   -3.6079  -23.2267 H   0  0  0  0  0  0  0  0  0  0  0  0
  -24.5514   -2.9948  -22.3653 H   0  0  0  0  0  0  0  0  0  0  0  0
  -25.5607   -4.8954  -21.0862 H   0  0  0  0  0  0  0  0  0  0  0  0
  -20.3539   -4.4289  -36.8960 H   0  0  0  0  0  0  0  0  0  0  0  0
  -21.3164   -5.6172  -37.7022 H   0  0  0  0  0  0  0  0  0  0  0  0
  -24.6247   -4.4491  -24.8935 H   0  0  0  0  0  0  0  0  0  0  0  0
  -23.6842   -6.1548  -21.0169 H   0  0  0  0  0  0  0  0  0  0  0  0
  1  3  1  0  0  0  0
  1 10  2  0  0  0  0
  2  4  2  0  0  0  0
  2 10  1  0  0  0  0
  3 12  2  0  0  0  0
  4 12  1  0  0  0  0
  5  8  1  0  0  0  0
  5 18  2  0  0  0  0
  6 13  2  0  0  0  0
  6 15  1  0  0  0  0
  7 16  1  0  0  0  0
  7 17  2  0  0  0  0
  8 28  2  0  0  0  0
  9 14  1  0  0  0  0
  9 15  1  0  0  0  0
  9 16  2  0  0  0  0
 10 11  1  0  0  0  0
 11 13  1  0  0  0  0
 11 14  2  0  0  0  0
 12 27  1  0  0  0  0
 13 21  1  0  0  0  0
 14 22  1  0  0  0  0
 15 29  2  0  0  0  0
 16 30  1  0  0  0  0
 17 19  1  0  0  0  0
 17 29  1  0  0  0  0
 18 23  1  0  0  0  0
 18 30  1  0  0  0  0
 19 32  1  0  0  0  0
 19 33  2  0  0  0  0
 20 27  1  0  0  0  0
 20 31  1  0  0  0  0
 20 34  2  0  0  0  0
 24 26  1  0  0  0  0
 25 26  1  0  0  0  0
 25 32  1  0  0  0  0
 26 35  1  0  0  0  0
 27 36  1  0  0  0  0
 27 37  1  0  0  0  0
 28 30  1  0  0  0  0
  1 38  1  0  0  0  0
  2 39  1  0  0  0  0
  3 40  1  0  0  0  0
  4 41  1  0  0  0  0
  5 42  1  0  0  0  0
  6 43  1  0  0  0  0
  7 44  1  0  0  0  0
  8 45  1  0  0  0  0
 21 46  1  0  0  0  0
 21 47  1  0  0  0  0
 21 48  1  0  0  0  0
 22 49  1  0  0  0  0
 22 50  1  0  0  0  0
 22 51  1  0  0  0  0
 23 52  1  0  0  0  0
 23 53  1  0  0  0  0
 23 54  1  0  0  0  0
 24 55  1  0  0  0  0
 24 56  1  0  0  0  0
 24 57  1  0  0  0  0
 25 58  1  0  0  0  0
 25 59  1  0  0  0  0
 26 60  1  0  0  0  0
 31 61  1  0  0  0  0
 31 62  1  0  0  0  0
 32 63  1  0  0  0  0
 35 64  1  0  0  0  0
M  END
> <SMILES>
C[C@@H](O)CNC(=O)c1cc(c2c(c(c(cc2n1)C)-c1ccc(cc1)C(F)(F)C(=O)N)C)-n1nccc1C

> <FORMATTED_ID>
H3D-012521

> <MOLFORMULA>
C27H27F2N5O3

> <Exact Mass>
507.21

> <XLogP>
3.71

> <TPSA_NOPS>
123.1

> <s_m_source_file>
ligprep_h3d.sdf

> <i_m_source_file_index>
1445

> <i_lp_mmshare_version>
55123

> <i_f3d_flags>
0

> <s_epik_input>
W0NIM11jMVtjSF1bY0hdbm4xLWMyW2NIXWMoQyg9TylbTkhdW0NIMl1bQ0BASF0oW0NIM10pW09IXSluYyhjMjMpW2NIXWMoW0NIM10pYyhjM1tDSDNdKS1jNFtjSF1bY0hdYyhbY0hdW2NIXTQpQyhGKShGKUMoPU8pW05IMl0=

> <s_epik_cmdline>
J2VwaWtfcHl0aG9uJywgJy1waHQnLCAnMC41JywgJy1waCcsICc3LjUnLCAnLXRuJywgJzgnLCAnLW1hJywgJzUwMCcsICctaW1hZScsICc8aW5maWxlLm1hZT4nLCAnLW9tYWUnLCAnPG91dGZpbGUubWFlPic=

> <r_lp_tautomer_probability>
1

> <r_epik_Ionization_Penalty>
0.000202579

> <r_epik_Ionization_Penalty_Charging>
0

> <r_epik_Ionization_Penalty_Neutral>
0.000202579

> <r_epik_State_Penalty>
-0

> <r_epik_Charging_Adjusted_Penalty>
0

> <i_epik_Tot_Q>
0

> <i_epik_Tot_abs_Q>
0

> <s_lp_Force_Field>
S-OPLS

> <r_lp_Energy>
58.2147

> <b_lp_Chiralities_Consistent>
1

> <s_lp_Variant>
ligprep_h3d.sdf:1445-1

> <ROCS_ShapeQuery>
_7L13

> <ROCS_TanimotoCombo>
0.717 

> <ROCS_ShapeTanimoto>
0.610 

> <ROCS_ColorTanimoto>
0.107 

> <ROCS_RefTversky>
0.769 

> <ROCS_RefColorTversky>
0.223 

> <ROCS_RefTverskyCombo>
0.992 

> <ROCS_FitTversky>
0.746 

> <ROCS_FitColorTversky>
0.172 

> <ROCS_FitTverskyCombo>
0.918 

> <ROCS_ColorScore>
-2.039

> <ROCS_Overlap>
1279.982

> <ROCS_Rank>
535                 

$$$$
ligprep_h3d.sdf:829_11
  -OEChem-08212117123D

 52 58  0     1  0  0  0  0  0999 V2000
  -20.7234   -4.8809  -29.9943 C   0  0  0  0  0  0  0  0  0  0  0  0
  -20.7319   -3.9569  -23.2819 C   0  0  0  0  0  0  0  0  0  0  0  0
  -21.6007   -4.2590  -30.8854 C   0  0  0  0  0  0  0  0  0  0  0  0
  -20.9856   -4.7984  -28.6043 C   0  0  0  0  0  0  0  0  0  0  0  0
  -22.1273   -4.1402  -28.0885 C   0  0  0  0  0  0  0  0  0  0  0  0
  -22.6917   -3.5925  -30.3732 C   0  0  0  0  0  0  0  0  0  0  0  0
  -22.9897   -3.5031  -29.0137 C   0  0  0  0  0  0  0  0  0  0  0  0
  -21.5508   -4.1892  -24.3624 C   0  0  0  0  0  0  0  0  0  0  0  0
  -21.7224   -4.0827  -32.2763 C   0  0  0  0  0  0  0  0  0  0  0  0
  -19.1695   -5.8773  -25.4112 C   0  0  0  0  0  0  0  0  0  0  0  0
  -19.3340   -3.4930  -26.2980 C   0  0  0  0  0  0  0  0  0  0  0  0
  -17.2105   -4.6679  -25.7679 C   0  0  0  0  0  0  0  0  0  0  0  0
  -20.5583   -5.9349  -33.4041 C   0  0  0  0  0  0  0  0  0  0  0  0
  -20.0027   -5.4729  -27.6827 C   0  0  0  0  0  0  0  0  0  0  0  0
  -23.9354   -3.7366  -24.7457 C   0  0  0  0  0  0  0  0  0  0  0  0
  -23.6066   -3.4492  -26.2127 C   0  0  0  0  0  0  0  0  0  0  0  0
  -19.7438   -4.8185  -35.2152 C   0  0  0  0  0  0  0  0  0  0  0  0
  -21.4583   -4.7805  -25.7432 C   0  0  2  0  0  0  0  0  0  0  0  0
  -20.0860   -3.7930  -34.1521 C   0  0  2  0  0  0  0  0  0  0  0  0
  -19.9864   -4.8706  -26.2591 C   0  0  1  0  0  0  0  0  0  0  0  0
  -18.8329   -3.2032  -33.5087 C   0  0  0  0  0  0  0  0  0  0  0  0
  -21.4522   -3.3660  -22.2735 N   0  0  0  0  0  0  0  0  0  0  0  0
  -22.8001   -3.3631  -32.6035 N   0  0  0  0  0  0  0  0  0  0  0  0
  -22.7055   -3.2214  -22.6922 N   0  0  0  0  0  0  0  0  0  0  0  0
  -17.8398   -5.8142  -25.5080 N   0  5  0  0  0  0  0  0  0  0  0  0
  -22.7494   -3.7096  -23.9354 N   0  0  0  0  0  0  0  0  0  0  0  0
  -17.9715   -3.5446  -26.0843 N   0  0  0  0  0  0  0  0  0  0  0  0
  -22.3753   -4.1073  -26.7095 N   0  0  3  0  0  0  0  0  0  0  0  0
  -20.8447   -4.5858  -33.2163 N   0  0  0  0  0  0  0  0  0  0  0  0
  -19.7461   -6.7634  -24.7782 O   0  0  0  0  0  0  0  0  0  0  0  0
  -19.9311   -2.4476  -26.5413 O   0  0  0  0  0  0  0  0  0  0  0  0
  -15.9815   -4.5583  -25.7399 O   0  0  0  0  0  0  0  0  0  0  0  0
  -20.9149   -6.8826  -32.7163 O   0  0  0  0  0  0  0  0  0  0  0  0
  -23.4117   -3.0526  -31.3944 O   0  0  0  0  0  0  0  0  0  0  0  0
  -19.7701   -6.0728  -34.5244 O   0  0  0  0  0  0  0  0  0  0  0  0
  -24.1172   -2.8757  -28.6514 F   0  0  0  0  0  0  0  0  0  0  0  0
  -19.8554   -5.4220  -30.3596 H   0  0  0  0  0  0  0  0  0  0  0  0
  -19.6825   -4.1736  -23.1650 H   0  0  0  0  0  0  0  0  0  0  0  0
  -20.2858   -6.5239  -27.6455 H   0  0  0  0  0  0  0  0  0  0  0  0
  -19.0101   -5.4087  -28.1242 H   0  0  0  0  0  0  0  0  0  0  0  0
  -24.6206   -2.9847  -24.3407 H   0  0  0  0  0  0  0  0  0  0  0  0
  -24.4002   -4.7228  -24.6492 H   0  0  0  0  0  0  0  0  0  0  0  0
  -24.4533   -3.7498  -26.8620 H   0  0  0  0  0  0  0  0  0  0  0  0
  -23.5276   -2.3485  -26.2697 H   0  0  0  0  0  0  0  0  0  0  0  0
  -20.4946   -4.8533  -36.0122 H   0  0  0  0  0  0  0  0  0  0  0  0
  -18.7558   -4.6706  -35.6610 H   0  0  0  0  0  0  0  0  0  0  0  0
  -21.8663   -5.8146  -25.6278 H   0  0  0  0  0  0  0  0  0  0  0  0
  -20.7066   -2.9889  -34.5628 H   0  0  0  0  0  0  0  0  0  0  0  0
  -18.2163   -4.0024  -33.1006 H   0  0  0  0  0  0  0  0  0  0  0  0
  -19.1148   -2.5247  -32.7052 H   0  0  0  0  0  0  0  0  0  0  0  0
  -18.2586   -2.6547  -34.2537 H   0  0  0  0  0  0  0  0  0  0  0  0
  -17.4601   -2.6809  -26.2251 H   0  0  0  0  0  0  0  0  0  0  0  0
  1  3  2  0  0  0  0
  1  4  1  0  0  0  0
  2  8  2  0  0  0  0
  2 22  1  0  0  0  0
  3  6  1  0  0  0  0
  3  9  1  0  0  0  0
  4  5  2  0  0  0  0
  4 14  1  0  0  0  0
  5  7  1  0  0  0  0
  5 28  1  0  0  0  0
  6  7  2  0  0  0  0
  6 34  1  0  0  0  0
  7 36  1  0  0  0  0
  8 18  1  0  0  0  0
  8 26  1  0  0  0  0
  9 23  2  0  0  0  0
  9 29  1  0  0  0  0
 10 20  1  0  0  0  0
 10 25  1  0  0  0  0
 10 30  2  0  0  0  0
 11 20  1  0  0  0  0
 11 27  1  0  0  0  0
 11 31  2  0  0  0  0
 12 25  1  0  0  0  0
 12 27  1  0  0  0  0
 12 32  2  0  0  0  0
 13 29  1  0  0  0  0
 13 33  2  0  0  0  0
 13 35  1  0  0  0  0
 14 20  1  0  0  0  0
 15 16  1  0  0  0  0
 15 26  1  0  0  0  0
 16 28  1  0  0  0  0
 17 19  1  0  0  0  0
 17 35  1  0  0  0  0
 18 20  1  0  0  0  0
 18 28  1  0  0  0  0
 19 21  1  0  0  0  0
 19 29  1  0  0  0  0
 22 24  2  0  0  0  0
 23 34  1  0  0  0  0
 24 26  1  0  0  0  0
  1 37  1  0  0  0  0
  2 38  1  0  0  0  0
 14 39  1  0  0  0  0
 14 40  1  0  0  0  0
 15 41  1  0  0  0  0
 15 42  1  0  0  0  0
 16 43  1  0  0  0  0
 16 44  1  0  0  0  0
 17 45  1  0  0  0  0
 17 46  1  0  0  0  0
 18 47  1  0  0  0  0
 19 48  1  0  0  0  0
 21 49  1  0  0  0  0
 21 50  1  0  0  0  0
 21 51  1  0  0  0  0
 27 52  1  0  0  0  0
M  CHG  1  25  -1
M  END
> <SMILES>
C[C@H]1COC(=O)N1c1noc2c(c3c(cc12)CC1([C@@H]2N3CCn3nncc32)C(=O)NC(=O)NC1=O)F

> <FORMATTED_ID>
H3D-005539

> <MOLFORMULA>
C21H17FN8O6

> <Exact Mass>
496.13

> <XLogP>
-0.89

> <TPSA_NOPS>
165.1

> <s_m_source_file>
ligprep_h3d.sdf

> <i_m_source_file_index>
829

> <i_lp_mmshare_version>
55123

> <i_f3d_flags>
0

> <s_epik_input>
W0NIM11bQ0BIXTFbQ0gyXU9DKD1PKU4xYzJub2MoYzNGKWMyW2NIXWMoW0NIMl00KWMzTihbQ0gyXVtDSDJdbjVjNltjSF1ubjUpW0NASF02QzQ3Qyg9TylbTkhdQyg9TylbTkhdQzc9Tw==

> <s_epik_cmdline>
J2VwaWtfcHl0aG9uJywgJy1waHQnLCAnMC41JywgJy1waCcsICc3LjUnLCAnLXRuJywgJzgnLCAnLW1hJywgJzUwMCcsICctaW1hZScsICc8aW5maWxlLm1hZT4nLCAnLW9tYWUnLCAnPG91dGZpbGUubWFlPic=

> <r_lp_tautomer_probability>
1

> <r_epik_Ionization_Penalty>
0.184757

> <r_epik_Ionization_Penalty_Charging>
0.184677

> <r_epik_Ionization_Penalty_Neutral>
8.06528e-05

> <r_epik_State_Penalty>
0.174233

> <r_epik_Charging_Adjusted_Penalty>
0.35891

> <i_epik_Tot_Q>
-1

> <i_epik_Tot_abs_Q>
1

> <s_epik_Chemistry_Notes>
This compound has an ester and may undergo hydrolysis at high or low pH.

> <s_lp_Force_Field>
S-OPLS

> <r_lp_Energy>
42.5605

> <b_lp_Chiralities_Consistent>
1

> <s_lp_Variant>
ligprep_h3d.sdf:829-1

> <ROCS_ShapeQuery>
_7L13

> <ROCS_TanimotoCombo>
0.710 

> <ROCS_ShapeTanimoto>
0.598 

> <ROCS_ColorTanimoto>
0.112 

> <ROCS_RefTversky>
0.769 

> <ROCS_RefColorTversky>
0.283 

> <ROCS_RefTverskyCombo>
1.053 

> <ROCS_FitTversky>
0.728 

> <ROCS_FitColorTversky>
0.157 

> <ROCS_FitTverskyCombo>
0.885 

> <ROCS_ColorScore>
-2.669

> <ROCS_Overlap>
1281.747

> <ROCS_Rank>
536                 

$$$$
ligprep_h3d.sdf:5064_1742
  -OEChem-08212117123D

 68 73  0     0  0  0  0  0  0999 V2000
  -24.6995   -4.3046  -22.5663 C   0  0  0  0  0  0  0  0  0  0  0  0
  -25.6379   -5.1184  -23.1978 C   0  0  0  0  0  0  0  0  0  0  0  0
  -23.6467   -3.7314  -23.2888 C   0  0  0  0  0  0  0  0  0  0  0  0
  -25.5552   -5.3852  -24.5674 C   0  0  0  0  0  0  0  0  0  0  0  0
  -22.6320   -3.5835  -25.6873 C   0  0  0  0  0  0  0  0  0  0  0  0
  -18.1057   -5.1766  -30.2579 C   0  0  0  0  0  0  0  0  0  0  0  0
  -20.7709   -4.5349  -30.9081 C   0  0  0  0  0  0  0  0  0  0  0  0
  -23.5427   -3.9862  -24.6707 C   0  0  0  0  0  0  0  0  0  0  0  0
  -19.0511   -4.9626  -29.2606 C   0  0  0  0  0  0  0  0  0  0  0  0
  -24.4974   -4.8055  -25.2769 C   0  0  0  0  0  0  0  0  0  0  0  0
  -20.3714   -4.6209  -29.5820 C   0  0  0  0  0  0  0  0  0  0  0  0
  -18.4988   -5.0688  -31.5908 C   0  0  0  0  0  0  0  0  0  0  0  0
  -19.8240   -4.7555  -31.9128 C   0  0  0  0  0  0  0  0  0  0  0  0
  -23.0436   -4.1558  -26.8689 C   0  0  0  0  0  0  0  0  0  0  0  0
  -20.5025   -7.0070  -33.4321 C   0  0  0  0  0  0  0  0  0  0  0  0
  -20.4082   -8.1501  -34.1215 C   0  0  0  0  0  0  0  0  0  0  0  0
  -19.5585   -5.7419  -35.2487 C   0  0  0  0  0  0  0  0  0  0  0  0
  -20.0658   -5.7645  -34.0095 C   0  0  0  0  0  0  0  0  0  0  0  0
  -19.8450   -8.1482  -35.5065 C   0  0  0  0  0  0  0  0  0  0  0  0
  -22.4315   -4.0405  -28.1998 C   0  0  0  0  0  0  0  0  0  0  0  0
  -18.0243   -3.7937  -27.2936 C   0  0  0  0  0  0  0  0  0  0  0  0
  -18.1556   -6.3173  -27.3026 C   0  0  0  0  0  0  0  0  0  0  0  0
  -20.3087   -4.9470  -27.2725 C   0  0  0  0  0  0  0  0  0  0  0  0
  -17.7069   -3.8228  -25.8021 C   0  0  0  0  0  0  0  0  0  0  0  0
  -17.8757   -6.3261  -25.8049 C   0  0  0  0  0  0  0  0  0  0  0  0
  -18.8383   -5.0172  -27.7620 C   0  0  0  0  0  0  0  0  0  0  0  0
  -18.8785   -6.7835  -37.3391 C   0  0  0  0  0  0  0  0  0  0  0  0
  -16.6024   -5.1554  -24.0095 C   0  0  0  0  0  0  0  0  0  0  0  0
  -16.2503   -5.5861  -32.1670 C   0  0  0  0  0  0  0  0  0  0  0  0
  -24.1696   -4.8907  -26.6113 N   0  0  0  0  0  0  0  0  0  0  0  0
  -21.1238   -4.4657  -28.4003 N   0  0  0  0  0  0  0  0  0  0  0  0
  -19.4416   -6.9001  -35.9995 N   0  0  0  0  0  0  0  0  0  0  0  0
  -17.0324   -5.1255  -25.4507 N   0  3  0  0  0  0  0  0  0  0  0  0
  -19.7707   -9.2140  -36.1162 O   0  0  0  0  0  0  0  0  0  0  0  0
  -23.1660   -3.6270  -29.0988 O   0  0  0  0  0  0  0  0  0  0  0  0
  -20.2079   -4.6608  -33.2188 O   0  0  0  0  0  0  0  0  0  0  0  0
  -17.5793   -5.2708  -32.5763 O   0  0  0  0  0  0  0  0  0  0  0  0
  -24.7853   -4.1111  -21.5002 H   0  0  0  0  0  0  0  0  0  0  0  0
  -26.4472   -5.5534  -22.6172 H   0  0  0  0  0  0  0  0  0  0  0  0
  -22.9222   -3.0984  -22.7840 H   0  0  0  0  0  0  0  0  0  0  0  0
  -26.2856   -6.0192  -25.0587 H   0  0  0  0  0  0  0  0  0  0  0  0
  -21.7689   -2.9431  -25.5628 H   0  0  0  0  0  0  0  0  0  0  0  0
  -17.0791   -5.4224  -30.0061 H   0  0  0  0  0  0  0  0  0  0  0  0
  -21.7913   -4.3028  -31.1934 H   0  0  0  0  0  0  0  0  0  0  0  0
  -20.9104   -7.0038  -32.4272 H   0  0  0  0  0  0  0  0  0  0  0  0
  -20.7320   -9.0961  -33.7030 H   0  0  0  0  0  0  0  0  0  0  0  0
  -19.2196   -4.8232  -35.7152 H   0  0  0  0  0  0  0  0  0  0  0  0
  -18.5603   -2.8634  -27.5294 H   0  0  0  0  0  0  0  0  0  0  0  0
  -17.0762   -3.7377  -27.8483 H   0  0  0  0  0  0  0  0  0  0  0  0
  -17.2053   -6.4540  -27.8339 H   0  0  0  0  0  0  0  0  0  0  0  0
  -18.7711   -7.1878  -27.5594 H   0  0  0  0  0  0  0  0  0  0  0  0
  -20.6997   -5.9225  -26.9658 H   0  0  0  0  0  0  0  0  0  0  0  0
  -20.4439   -4.2531  -26.4368 H   0  0  0  0  0  0  0  0  0  0  0  0
  -17.0126   -3.0145  -25.5449 H   0  0  0  0  0  0  0  0  0  0  0  0
  -18.6060   -3.7346  -25.1812 H   0  0  0  0  0  0  0  0  0  0  0  0
  -18.7908   -6.2784  -25.2072 H   0  0  0  0  0  0  0  0  0  0  0  0
  -17.3066   -7.2188  -25.5283 H   0  0  0  0  0  0  0  0  0  0  0  0
  -17.7867   -6.9083  -37.2907 H   0  0  0  0  0  0  0  0  0  0  0  0
  -19.3081   -7.5622  -37.9864 H   0  0  0  0  0  0  0  0  0  0  0  0
  -19.1160   -5.7917  -37.7515 H   0  0  0  0  0  0  0  0  0  0  0  0
  -17.5004   -5.0955  -23.3919 H   0  0  0  0  0  0  0  0  0  0  0  0
  -16.0703   -6.0932  -23.8389 H   0  0  0  0  0  0  0  0  0  0  0  0
  -15.9500   -4.2971  -23.8377 H   0  0  0  0  0  0  0  0  0  0  0  0
  -15.6193   -5.7221  -33.0488 H   0  0  0  0  0  0  0  0  0  0  0  0
  -16.2597   -6.5002  -31.5680 H   0  0  0  0  0  0  0  0  0  0  0  0
  -15.8588   -4.7625  -31.5652 H   0  0  0  0  0  0  0  0  0  0  0  0
  -24.6873   -5.4212  -27.2986 H   0  0  0  0  0  0  0  0  0  0  0  0
  -16.1705   -5.1830  -26.0109 H   0  0  0  0  0  0  0  0  0  0  0  0
  1  2  2  0  0  0  0
  1  3  1  0  0  0  0
  2  4  1  0  0  0  0
  3  8  2  0  0  0  0
  4 10  2  0  0  0  0
  5  8  1  0  0  0  0
  5 14  2  0  0  0  0
  6  9  1  0  0  0  0
  6 12  2  0  0  0  0
  7 11  1  0  0  0  0
  7 13  2  0  0  0  0
  8 10  1  0  0  0  0
  9 11  2  0  0  0  0
  9 26  1  0  0  0  0
 10 30  1  0  0  0  0
 11 31  1  0  0  0  0
 12 13  1  0  0  0  0
 12 37  1  0  0  0  0
 13 36  1  0  0  0  0
 14 20  1  0  0  0  0
 14 30  1  0  0  0  0
 15 16  2  0  0  0  0
 15 18  1  0  0  0  0
 16 19  1  0  0  0  0
 17 18  2  0  0  0  0
 17 32  1  0  0  0  0
 18 36  1  0  0  0  0
 19 32  1  0  0  0  0
 19 34  2  0  0  0  0
 20 31  1  0  0  0  0
 20 35  2  0  0  0  0
 21 24  1  0  0  0  0
 21 26  1  0  0  0  0
 22 25  1  0  0  0  0
 22 26  1  0  0  0  0
 23 26  1  0  0  0  0
 23 31  1  0  0  0  0
 24 33  1  0  0  0  0
 25 33  1  0  0  0  0
 27 32  1  0  0  0  0
 28 33  1  0  0  0  0
 29 37  1  0  0  0  0
  1 38  1  0  0  0  0
  2 39  1  0  0  0  0
  3 40  1  0  0  0  0
  4 41  1  0  0  0  0
  5 42  1  0  0  0  0
  6 43  1  0  0  0  0
  7 44  1  0  0  0  0
 15 45  1  0  0  0  0
 16 46  1  0  0  0  0
 17 47  1  0  0  0  0
 21 48  1  0  0  0  0
 21 49  1  0  0  0  0
 22 50  1  0  0  0  0
 22 51  1  0  0  0  0
 23 52  1  0  0  0  0
 23 53  1  0  0  0  0
 24 54  1  0  0  0  0
 24 55  1  0  0  0  0
 25 56  1  0  0  0  0
 25 57  1  0  0  0  0
 27 58  1  0  0  0  0
 27 59  1  0  0  0  0
 27 60  1  0  0  0  0
 28 61  1  0  0  0  0
 28 62  1  0  0  0  0
 28 63  1  0  0  0  0
 29 64  1  0  0  0  0
 29 65  1  0  0  0  0
 29 66  1  0  0  0  0
 30 67  1  0  0  0  0
 33 68  1  0  0  0  0
M  CHG  1  33   1
M  END
> <SMILES>
COc1cc2c(cc1OC1=CN(C)C(=O)C=C1)N(CC12CCN(C)CC1)C(=O)c1cc2ccccc2[nH]1

> <FORMATTED_ID>
H3D-009449

> <MOLFORMULA>
C29H30N4O4

> <Exact Mass>
498.23

> <XLogP>
5.13

> <TPSA_NOPS>
78.1

> <s_m_source_file>
ligprep_h3d.sdf

> <i_m_source_file_index>
5064

> <i_lp_mmshare_version>
55123

> <i_f3d_flags>
0

> <s_epik_input>
W2NIXTFbY0hdYyg9TyluKFtDSDNdKVtjSF1jMU9jKGMoW2NIXTIpT1tDSDNdKVtjSF1jKGMyQzM0W0NIMl1bQ0gyXU4oW0NIM10pW0NIMl1bQ0gyXTQpTihbQ0gyXTMpQyg9TyljKFtjSF01KVtuSF1jKGM1NilbY0hdW2NIXVtjSF1bY0hdNg==

> <s_epik_cmdline>
J2VwaWtfcHl0aG9uJywgJy1waHQnLCAnMC41JywgJy1waCcsICc3LjUnLCAnLXRuJywgJzgnLCAnLW1hJywgJzUwMCcsICctaW1hZScsICc8aW5maWxlLm1hZT4nLCAnLW9tYWUnLCAnPG91dGZpbGUubWFlPic=

> <r_lp_tautomer_probability>
1

> <r_epik_Ionization_Penalty>
0.0121632

> <r_epik_Ionization_Penalty_Charging>
0.012163

> <r_epik_Ionization_Penalty_Neutral>
1.83996e-07

> <r_epik_State_Penalty>
0.00940041

> <r_epik_Charging_Adjusted_Penalty>
0.0215634

> <i_epik_Tot_Q>
1

> <i_epik_Tot_abs_Q>
1

> <s_lp_Force_Field>
S-OPLS

> <r_lp_Energy>
98.7621

> <b_lp_Chiralities_Consistent>
1

> <s_lp_Variant>
ligprep_h3d.sdf:5064-1

> <ROCS_ShapeQuery>
_7L13

> <ROCS_TanimotoCombo>
0.655 

> <ROCS_ShapeTanimoto>
0.606 

> <ROCS_ColorTanimoto>
0.048 

> <ROCS_RefTversky>
0.769 

> <ROCS_RefColorTversky>
0.111 

> <ROCS_RefTverskyCombo>
0.880 

> <ROCS_FitTversky>
0.741 

> <ROCS_FitColorTversky>
0.079 

> <ROCS_FitTverskyCombo>
0.821 

> <ROCS_ColorScore>
-1.019

> <ROCS_Overlap>
1280.321

> <ROCS_Rank>
537                 

$$$$
ligprep_h3d.sdf:5043_1836
  -OEChem-08212117123D

 68 73  0     0  0  0  0  0  0999 V2000
  -19.7180   -5.6100  -35.1477 C   0  0  0  0  0  0  0  0  0  0  0  0
  -19.7875   -6.9472  -34.7621 C   0  0  0  0  0  0  0  0  0  0  0  0
  -20.1564   -4.5937  -34.2910 C   0  0  0  0  0  0  0  0  0  0  0  0
  -20.2956   -7.3114  -33.5119 C   0  0  0  0  0  0  0  0  0  0  0  0
  -21.1932   -4.1901  -31.9316 C   0  0  0  0  0  0  0  0  0  0  0  0
  -20.5755   -3.9790  -25.0858 C   0  0  0  0  0  0  0  0  0  0  0  0
  -22.8574   -4.0490  -26.7310 C   0  0  0  0  0  0  0  0  0  0  0  0
  -20.6726   -4.9367  -33.0255 C   0  0  0  0  0  0  0  0  0  0  0  0
  -20.4516   -4.2725  -26.4390 C   0  0  0  0  0  0  0  0  0  0  0  0
  -20.7302   -6.2849  -32.6659 C   0  0  0  0  0  0  0  0  0  0  0  0
  -21.5939   -4.3026  -27.2510 C   0  0  0  0  0  0  0  0  0  0  0  0
  -21.8403   -3.7150  -24.5557 C   0  0  0  0  0  0  0  0  0  0  0  0
  -22.9739   -3.7517  -25.3728 C   0  0  0  0  0  0  0  0  0  0  0  0
  -21.5504   -5.0829  -30.9476 C   0  0  0  0  0  0  0  0  0  0  0  0
  -22.1357   -4.8009  -29.6279 C   0  0  0  0  0  0  0  0  0  0  0  0
  -26.1798   -4.3343  -22.7666 C   0  0  0  0  0  0  0  0  0  0  0  0
  -25.0573   -5.3701  -22.6981 C   0  0  0  0  0  0  0  0  0  0  0  0
  -26.4550   -4.0988  -24.2511 C   0  0  0  0  0  0  0  0  0  0  0  0
  -24.7399   -5.7472  -24.1430 C   0  0  0  0  0  0  0  0  0  0  0  0
  -18.7312   -6.0781  -26.8767 C   0  0  0  0  0  0  0  0  0  0  0  0
  -18.0498   -3.6287  -27.1110 C   0  0  0  0  0  0  0  0  0  0  0  0
  -19.7725   -4.6232  -28.6710 C   0  0  0  0  0  0  0  0  0  0  0  0
  -17.8730   -6.1659  -25.6210 C   0  0  0  0  0  0  0  0  0  0  0  0
  -17.1675   -3.7749  -25.8769 C   0  0  0  0  0  0  0  0  0  0  0  0
  -25.1760   -4.5336  -24.9499 C   0  0  0  0  0  0  0  0  0  0  0  0
  -19.2026   -4.6475  -27.2204 C   0  0  0  0  0  0  0  0  0  0  0  0
  -15.6275   -5.6198  -26.6329 C   0  0  0  0  0  0  0  0  0  0  0  0
  -20.7531   -3.4037  -22.4633 C   0  0  0  0  0  0  0  0  0  0  0  0
  -21.2671   -6.3438  -31.3996 N   0  0  0  0  0  0  0  0  0  0  0  0
  -21.2443   -4.5997  -28.5819 N   0  0  0  0  0  0  0  0  0  0  0  0
  -16.7204   -5.1991  -25.6867 N   0  3  0  0  0  0  0  0  0  0  0  0
  -23.3625   -4.7857  -29.5762 O   0  0  0  0  0  0  0  0  0  0  0  0
  -24.2067   -3.4977  -24.8495 O   0  0  0  0  0  0  0  0  0  0  0  0
  -21.9561   -3.4212  -23.2286 O   0  0  0  0  0  0  0  0  0  0  0  0
  -19.3182   -5.3515  -36.1247 H   0  0  0  0  0  0  0  0  0  0  0  0
  -19.4417   -7.7201  -35.4434 H   0  0  0  0  0  0  0  0  0  0  0  0
  -20.0961   -3.5551  -34.6040 H   0  0  0  0  0  0  0  0  0  0  0  0
  -20.3501   -8.3526  -33.2121 H   0  0  0  0  0  0  0  0  0  0  0  0
  -21.2938   -3.1143  -31.8751 H   0  0  0  0  0  0  0  0  0  0  0  0
  -19.6984   -3.9549  -24.4416 H   0  0  0  0  0  0  0  0  0  0  0  0
  -23.7516   -4.0740  -27.3423 H   0  0  0  0  0  0  0  0  0  0  0  0
  -27.0811   -4.6768  -22.2482 H   0  0  0  0  0  0  0  0  0  0  0  0
  -25.8579   -3.4049  -22.2829 H   0  0  0  0  0  0  0  0  0  0  0  0
  -24.1760   -4.9297  -22.2172 H   0  0  0  0  0  0  0  0  0  0  0  0
  -25.3464   -6.2472  -22.1102 H   0  0  0  0  0  0  0  0  0  0  0  0
  -27.2915   -4.7311  -24.5710 H   0  0  0  0  0  0  0  0  0  0  0  0
  -26.7135   -3.0530  -24.4434 H   0  0  0  0  0  0  0  0  0  0  0  0
  -23.6790   -5.9854  -24.2651 H   0  0  0  0  0  0  0  0  0  0  0  0
  -25.3320   -6.6237  -24.4315 H   0  0  0  0  0  0  0  0  0  0  0  0
  -18.1728   -6.5095  -27.7257 H   0  0  0  0  0  0  0  0  0  0  0  0
  -19.6064   -6.7390  -26.7455 H   0  0  0  0  0  0  0  0  0  0  0  0
  -18.4586   -2.5968  -27.1225 H   0  0  0  0  0  0  0  0  0  0  0  0
  -17.4101   -3.6771  -28.0164 H   0  0  0  0  0  0  0  0  0  0  0  0
  -19.4543   -3.7374  -29.2330 H   0  0  0  0  0  0  0  0  0  0  0  0
  -19.4826   -5.5068  -29.2514 H   0  0  0  0  0  0  0  0  0  0  0  0
  -18.4702   -5.9041  -24.7328 H   0  0  0  0  0  0  0  0  0  0  0  0
  -17.4541   -7.1742  -25.4704 H   0  0  0  0  0  0  0  0  0  0  0  0
  -16.2619   -3.1460  -25.9345 H   0  0  0  0  0  0  0  0  0  0  0  0
  -17.7282   -3.4834  -24.9721 H   0  0  0  0  0  0  0  0  0  0  0  0
  -25.3374   -4.7619  -26.0075 H   0  0  0  0  0  0  0  0  0  0  0  0
  -16.0382   -5.6070  -27.6442 H   0  0  0  0  0  0  0  0  0  0  0  0
  -14.8067   -4.9071  -26.5335 H   0  0  0  0  0  0  0  0  0  0  0  0
  -15.3104   -6.6256  -26.3509 H   0  0  0  0  0  0  0  0  0  0  0  0
  -20.9849   -3.1568  -21.4244 H   0  0  0  0  0  0  0  0  0  0  0  0
  -20.0657   -2.6634  -22.8803 H   0  0  0  0  0  0  0  0  0  0  0  0
  -20.2903   -4.3925  -22.5059 H   0  0  0  0  0  0  0  0  0  0  0  0
  -21.4284   -7.1968  -30.8817 H   0  0  0  0  0  0  0  0  0  0  0  0
  -16.2735   -5.2276  -24.7237 H   0  0  0  0  0  0  0  0  0  0  0  0
  1  2  2  0  0  0  0
  1  3  1  0  0  0  0
  2  4  1  0  0  0  0
  3  8  2  0  0  0  0
  4 10  2  0  0  0  0
  5  8  1  0  0  0  0
  5 14  2  0  0  0  0
  6  9  1  0  0  0  0
  6 12  2  0  0  0  0
  7 11  1  0  0  0  0
  7 13  2  0  0  0  0
  8 10  1  0  0  0  0
  9 11  2  0  0  0  0
  9 26  1  0  0  0  0
 10 29  1  0  0  0  0
 11 30  1  0  0  0  0
 12 13  1  0  0  0  0
 12 34  1  0  0  0  0
 13 33  1  0  0  0  0
 14 15  1  0  0  0  0
 14 29  1  0  0  0  0
 15 30  1  0  0  0  0
 15 32  2  0  0  0  0
 16 17  1  0  0  0  0
 16 18  1  0  0  0  0
 17 19  1  0  0  0  0
 18 25  1  0  0  0  0
 19 25  1  0  0  0  0
 20 23  1  0  0  0  0
 20 26  1  0  0  0  0
 21 24  1  0  0  0  0
 21 26  1  0  0  0  0
 22 26  1  0  0  0  0
 22 30  1  0  0  0  0
 23 31  1  0  0  0  0
 24 31  1  0  0  0  0
 25 33  1  0  0  0  0
 27 31  1  0  0  0  0
 28 34  1  0  0  0  0
  1 35  1  0  0  0  0
  2 36  1  0  0  0  0
  3 37  1  0  0  0  0
  4 38  1  0  0  0  0
  5 39  1  0  0  0  0
  6 40  1  0  0  0  0
  7 41  1  0  0  0  0
 16 42  1  0  0  0  0
 16 43  1  0  0  0  0
 17 44  1  0  0  0  0
 17 45  1  0  0  0  0
 18 46  1  0  0  0  0
 18 47  1  0  0  0  0
 19 48  1  0  0  0  0
 19 49  1  0  0  0  0
 20 50  1  0  0  0  0
 20 51  1  0  0  0  0
 21 52  1  0  0  0  0
 21 53  1  0  0  0  0
 22 54  1  0  0  0  0
 22 55  1  0  0  0  0
 23 56  1  0  0  0  0
 23 57  1  0  0  0  0
 24 58  1  0  0  0  0
 24 59  1  0  0  0  0
 25 60  1  0  0  0  0
 27 61  1  0  0  0  0
 27 62  1  0  0  0  0
 27 63  1  0  0  0  0
 28 64  1  0  0  0  0
 28 65  1  0  0  0  0
 28 66  1  0  0  0  0
 29 67  1  0  0  0  0
 31 68  1  0  0  0  0
M  CHG  1  31   1
M  END
> <SMILES>
COc1cc2c(cc1OC1CCCC1)N(CC12CCN(C)CC1)C(=O)c1cc2ccccc2[nH]1

> <FORMATTED_ID>
H3D-009371

> <MOLFORMULA>
C28H33N3O3

> <Exact Mass>
459.25

> <XLogP>
6.24

> <TPSA_NOPS>
57.8

> <s_m_source_file>
ligprep_h3d.sdf

> <i_m_source_file_index>
5043

> <i_lp_mmshare_version>
55123

> <i_f3d_flags>
0

> <s_epik_input>
W0NIMl0xW0NIMl1bQ0gyXVtDSDJdW0NIXTFPYyhjKFtjSF0yKU9bQ0gzXSlbY0hdYyhjMkMzNFtDSDJdW0NIMl1OKFtDSDNdKVtDSDJdW0NIMl00KU4oW0NIMl0zKUMoPU8pYyhbY0hdNSlbbkhdYyhjNTYpW2NIXVtjSF1bY0hdW2NIXTY=

> <s_epik_cmdline>
J2VwaWtfcHl0aG9uJywgJy1waHQnLCAnMC41JywgJy1waCcsICc3LjUnLCAnLXRuJywgJzgnLCAnLW1hJywgJzUwMCcsICctaW1hZScsICc8aW5maWxlLm1hZT4nLCAnLW9tYWUnLCAnPG91dGZpbGUubWFlPic=

> <r_lp_tautomer_probability>
1

> <r_epik_Ionization_Penalty>
0.0121631

> <r_epik_Ionization_Penalty_Charging>
0.012163

> <r_epik_Ionization_Penalty_Neutral>
1.83996e-07

> <r_epik_State_Penalty>
0.00940041

> <r_epik_Charging_Adjusted_Penalty>
0.0215634

> <i_epik_Tot_Q>
1

> <i_epik_Tot_abs_Q>
1

> <s_lp_Force_Field>
S-OPLS

> <r_lp_Energy>
85.1052

> <b_lp_Chiralities_Consistent>
1

> <s_lp_Variant>
ligprep_h3d.sdf:5043-1

> <ROCS_ShapeQuery>
_7L13

> <ROCS_TanimotoCombo>
0.744 

> <ROCS_ShapeTanimoto>
0.650 

> <ROCS_ColorTanimoto>
0.095 

> <ROCS_RefTversky>
0.769 

> <ROCS_RefColorTversky>
0.199 

> <ROCS_RefTverskyCombo>
0.968 

> <ROCS_FitTversky>
0.807 

> <ROCS_FitColorTversky>
0.153 

> <ROCS_FitTverskyCombo>
0.960 

> <ROCS_ColorScore>
-1.818

> <ROCS_Overlap>
1274.347

> <ROCS_Rank>
538                 

$$$$
ligprep_h3d.sdf:5319_872
  -OEChem-08212117123D

 66 71  0     0  0  0  0  0  0999 V2000
  -19.8573   -6.1045  -35.7208 C   0  0  0  0  0  0  0  0  0  0  0  0
  -25.6562   -4.0866  -20.7373 C   0  0  0  0  0  0  0  0  0  0  0  0
  -20.1575   -7.2461  -34.9778 C   0  0  0  0  0  0  0  0  0  0  0  0
  -20.3228   -4.8578  -35.3027 C   0  0  0  0  0  0  0  0  0  0  0  0
  -26.1538   -5.3621  -20.9969 C   0  0  0  0  0  0  0  0  0  0  0  0
  -24.9656   -3.3728  -21.7234 C   0  0  0  0  0  0  0  0  0  0  0  0
  -20.9232   -7.1412  -33.8166 C   0  0  0  0  0  0  0  0  0  0  0  0
  -21.0885   -4.7528  -34.1415 C   0  0  0  0  0  0  0  0  0  0  0  0
  -25.9781   -5.9639  -22.2462 C   0  0  0  0  0  0  0  0  0  0  0  0
  -24.1424   -3.5379  -24.1931 C   0  0  0  0  0  0  0  0  0  0  0  0
  -19.5182   -4.4457  -28.8411 C   0  0  0  0  0  0  0  0  0  0  0  0
  -22.3085   -4.5041  -29.1991 C   0  0  0  0  0  0  0  0  0  0  0  0
  -24.7761   -3.9591  -22.9906 C   0  0  0  0  0  0  0  0  0  0  0  0
  -20.3633   -4.4561  -27.7373 C   0  0  0  0  0  0  0  0  0  0  0  0
  -21.3887   -5.8945  -33.3985 C   0  0  0  0  0  0  0  0  0  0  0  0
  -25.2857   -5.2385  -23.2223 C   0  0  0  0  0  0  0  0  0  0  0  0
  -21.7520   -4.4836  -27.9257 C   0  0  0  0  0  0  0  0  0  0  0  0
  -20.0682   -4.4589  -30.1247 C   0  0  0  0  0  0  0  0  0  0  0  0
  -21.4545   -4.4893  -30.3022 C   0  0  0  0  0  0  0  0  0  0  0  0
  -24.2768   -4.5510  -25.1143 C   0  0  0  0  0  0  0  0  0  0  0  0
  -23.7896   -4.5939  -26.5019 C   0  0  0  0  0  0  0  0  0  0  0  0
  -17.9848   -6.1036  -26.1746 C   0  0  0  0  0  0  0  0  0  0  0  0
  -17.5742   -3.6156  -26.0678 C   0  0  0  0  0  0  0  0  0  0  0  0
  -19.4617   -5.8924  -25.8524 C   0  0  0  0  0  0  0  0  0  0  0  0
  -19.0572   -3.3708  -25.7985 C   0  0  0  0  0  0  0  0  0  0  0  0
  -21.4073   -4.2863  -25.6277 C   0  0  0  0  0  0  0  0  0  0  0  0
  -17.1188   -4.9917  -25.5941 C   0  0  0  0  0  0  0  0  0  0  0  0
  -19.9999   -4.5020  -26.2628 C   0  0  0  0  0  0  0  0  0  0  0  0
  -18.8684   -3.1754  -31.7276 C   0  0  0  0  0  0  0  0  0  0  0  0
  -22.2127   -5.7809  -32.1496 C   0  0  0  0  0  0  0  0  0  0  0  0
  -24.9679   -5.5723  -24.5196 N   0  0  0  0  0  0  0  0  0  0  0  0
  -22.4179   -4.4737  -26.6853 N   0  0  0  0  0  0  0  0  0  0  0  0
  -24.6465   -4.7502  -27.3677 O   0  0  0  0  0  0  0  0  0  0  0  0
  -15.7702   -5.2116  -25.9942 O   0  0  0  0  0  0  0  0  0  0  0  0
  -19.2364   -4.4499  -31.2051 O   0  0  0  0  0  0  0  0  0  0  0  0
  -21.9866   -4.5038  -31.5575 O   0  0  0  0  0  0  0  0  0  0  0  0
  -19.2600   -6.1862  -36.6242 H   0  0  0  0  0  0  0  0  0  0  0  0
  -25.8061   -3.6392  -19.7582 H   0  0  0  0  0  0  0  0  0  0  0  0
  -19.7942   -8.2168  -35.3026 H   0  0  0  0  0  0  0  0  0  0  0  0
  -20.0884   -3.9686  -35.8803 H   0  0  0  0  0  0  0  0  0  0  0  0
  -26.6868   -5.8985  -20.2163 H   0  0  0  0  0  0  0  0  0  0  0  0
  -24.5834   -2.3789  -21.5078 H   0  0  0  0  0  0  0  0  0  0  0  0
  -21.1523   -8.0361  -33.2441 H   0  0  0  0  0  0  0  0  0  0  0  0
  -21.4470   -3.7774  -33.8234 H   0  0  0  0  0  0  0  0  0  0  0  0
  -26.3651   -6.9571  -22.4479 H   0  0  0  0  0  0  0  0  0  0  0  0
  -23.6427   -2.5932  -24.3618 H   0  0  0  0  0  0  0  0  0  0  0  0
  -18.4408   -4.4434  -28.7285 H   0  0  0  0  0  0  0  0  0  0  0  0
  -23.3790   -4.5191  -29.3650 H   0  0  0  0  0  0  0  0  0  0  0  0
  -17.6553   -7.0687  -25.7693 H   0  0  0  0  0  0  0  0  0  0  0  0
  -17.8285   -6.1823  -27.2563 H   0  0  0  0  0  0  0  0  0  0  0  0
  -17.3435   -3.4868  -27.1301 H   0  0  0  0  0  0  0  0  0  0  0  0
  -16.9809   -2.8436  -25.5611 H   0  0  0  0  0  0  0  0  0  0  0  0
  -20.0499   -6.6938  -26.3177 H   0  0  0  0  0  0  0  0  0  0  0  0
  -19.5793   -6.0159  -24.7670 H   0  0  0  0  0  0  0  0  0  0  0  0
  -19.1708   -3.2467  -24.7123 H   0  0  0  0  0  0  0  0  0  0  0  0
  -19.3501   -2.4138  -26.2491 H   0  0  0  0  0  0  0  0  0  0  0  0
  -21.6090   -4.9694  -24.7947 H   0  0  0  0  0  0  0  0  0  0  0  0
  -21.5357   -3.2627  -25.2515 H   0  0  0  0  0  0  0  0  0  0  0  0
  -17.1527   -5.0379  -24.4988 H   0  0  0  0  0  0  0  0  0  0  0  0
  -18.2045   -3.3102  -32.5850 H   0  0  0  0  0  0  0  0  0  0  0  0
  -18.3649   -2.5939  -30.9512 H   0  0  0  0  0  0  0  0  0  0  0  0
  -19.7705   -2.6485  -32.0474 H   0  0  0  0  0  0  0  0  0  0  0  0
  -23.2797   -5.8871  -32.3732 H   0  0  0  0  0  0  0  0  0  0  0  0
  -21.9398   -6.5627  -31.4326 H   0  0  0  0  0  0  0  0  0  0  0  0
  -25.2106   -6.4467  -24.9650 H   0  0  0  0  0  0  0  0  0  0  0  0
  -15.2459   -4.4909  -25.6110 H   0  0  0  0  0  0  0  0  0  0  0  0
  1  3  2  0  0  0  0
  1  4  1  0  0  0  0
  2  5  2  0  0  0  0
  2  6  1  0  0  0  0
  3  7  1  0  0  0  0
  4  8  2  0  0  0  0
  5  9  1  0  0  0  0
  6 13  2  0  0  0  0
  7 15  2  0  0  0  0
  8 15  1  0  0  0  0
  9 16  2  0  0  0  0
 10 13  1  0  0  0  0
 10 20  2  0  0  0  0
 11 14  1  0  0  0  0
 11 18  2  0  0  0  0
 12 17  1  0  0  0  0
 12 19  2  0  0  0  0
 13 16  1  0  0  0  0
 14 17  2  0  0  0  0
 14 28  1  0  0  0  0
 15 30  1  0  0  0  0
 16 31  1  0  0  0  0
 17 32  1  0  0  0  0
 18 19  1  0  0  0  0
 18 35  1  0  0  0  0
 19 36  1  0  0  0  0
 20 21  1  0  0  0  0
 20 31  1  0  0  0  0
 21 32  1  0  0  0  0
 21 33  2  0  0  0  0
 22 24  1  0  0  0  0
 22 27  1  0  0  0  0
 23 25  1  0  0  0  0
 23 27  1  0  0  0  0
 24 28  1  0  0  0  0
 25 28  1  0  0  0  0
 26 28  1  0  0  0  0
 26 32  1  0  0  0  0
 27 34  1  0  0  0  0
 29 35  1  0  0  0  0
 30 36  1  0  0  0  0
  1 37  1  0  0  0  0
  2 38  1  0  0  0  0
  3 39  1  0  0  0  0
  4 40  1  0  0  0  0
  5 41  1  0  0  0  0
  6 42  1  0  0  0  0
  7 43  1  0  0  0  0
  8 44  1  0  0  0  0
  9 45  1  0  0  0  0
 10 46  1  0  0  0  0
 11 47  1  0  0  0  0
 12 48  1  0  0  0  0
 22 49  1  0  0  0  0
 22 50  1  0  0  0  0
 23 51  1  0  0  0  0
 23 52  1  0  0  0  0
 24 53  1  0  0  0  0
 24 54  1  0  0  0  0
 25 55  1  0  0  0  0
 25 56  1  0  0  0  0
 26 57  1  0  0  0  0
 26 58  1  0  0  0  0
 27 59  1  0  0  0  0
 29 60  1  0  0  0  0
 29 61  1  0  0  0  0
 29 62  1  0  0  0  0
 30 63  1  0  0  0  0
 30 64  1  0  0  0  0
 31 65  1  0  0  0  0
 34 66  1  0  0  0  0
M  END
> <SMILES>
COc1cc2c(cc1OCc1ccccc1)N(CC12CCC(O)CC1)C(=O)c1cc2ccccc2[nH]1

> <FORMATTED_ID>
H3D-014810

> <MOLFORMULA>
C30H30N2O4

> <Exact Mass>
482.22

> <XLogP>
6.78

> <TPSA_NOPS>
74.8

> <s_m_source_file>
ligprep_h3d.sdf

> <i_m_source_file_index>
5319

> <i_lp_mmshare_version>
55123

> <i_f3d_flags>
0

> <s_epik_input>
W2NIXTFbY0hdW2NIXVtjSF1bY0hdYzFbQ0gyXU9jKGMoW2NIXTIpT1tDSDNdKVtjSF1jKGMyW0NAXTM0W0NIMl1bQ0gyXVtDQEhdKFtPSF0pW0NIMl1bQ0gyXTQpTihbQ0gyXTMpQyg9TyljKFtjSF01KVtuSF1jKGM1NilbY0hdW2NIXVtjSF1bY0hdNg==

> <s_epik_cmdline>
J2VwaWtfcHl0aG9uJywgJy1waHQnLCAnMC41JywgJy1waCcsICc3LjUnLCAnLXRuJywgJzgnLCAnLW1hJywgJzUwMCcsICctaW1hZScsICc8aW5maWxlLm1hZT4nLCAnLW9tYWUnLCAnPG91dGZpbGUubWFlPic=

> <r_lp_tautomer_probability>
1

> <r_epik_Ionization_Penalty>
7.03201e-07

> <r_epik_Ionization_Penalty_Charging>
0

> <r_epik_Ionization_Penalty_Neutral>
7.03201e-07

> <r_epik_State_Penalty>
-0

> <r_epik_Charging_Adjusted_Penalty>
0

> <i_epik_Tot_Q>
0

> <i_epik_Tot_abs_Q>
0

> <s_lp_Force_Field>
S-OPLS

> <r_lp_Energy>
70.527

> <b_lp_Chiralities_Consistent>
1

> <s_lp_Variant>
ligprep_h3d.sdf:5319-1

> <ROCS_ShapeQuery>
_7L13

> <ROCS_TanimotoCombo>
0.726 

> <ROCS_ShapeTanimoto>
0.622 

> <ROCS_ColorTanimoto>
0.104 

> <ROCS_RefTversky>
0.769 

> <ROCS_RefColorTversky>
0.216 

> <ROCS_RefTverskyCombo>
0.985 

> <ROCS_FitTversky>
0.765 

> <ROCS_FitColorTversky>
0.166 

> <ROCS_FitTverskyCombo>
0.931 

> <ROCS_ColorScore>
-1.976

> <ROCS_Overlap>
1277.908

> <ROCS_Rank>
539                 

$$$$
ligprep_h3d.sdf:5343_1191
  -OEChem-08212117123D

 67 72  0     0  0  0  0  0  0999 V2000
  -19.1728   -6.1231  -34.5953 C   0  0  0  0  0  0  0  0  0  0  0  0
  -20.2146   -6.9784  -34.2369 C   0  0  0  0  0  0  0  0  0  0  0  0
  -19.0306   -4.8912  -33.9565 C   0  0  0  0  0  0  0  0  0  0  0  0
  -21.1145   -6.6019  -33.2399 C   0  0  0  0  0  0  0  0  0  0  0  0
  -19.9305   -4.5147  -32.9594 C   0  0  0  0  0  0  0  0  0  0  0  0
  -23.4601   -3.9033  -27.6526 C   0  0  0  0  0  0  0  0  0  0  0  0
  -20.7898   -4.5441  -28.3048 C   0  0  0  0  0  0  0  0  0  0  0  0
  -15.2708   -6.3884  -25.6061 C   0  0  0  0  0  0  0  0  0  0  0  0
  -22.5592   -4.2755  -26.6624 C   0  0  0  0  0  0  0  0  0  0  0  0
  -20.9724   -5.3700  -32.6011 C   0  0  0  0  0  0  0  0  0  0  0  0
  -21.2400   -4.5910  -26.9934 C   0  0  0  0  0  0  0  0  0  0  0  0
  -23.0208   -3.8519  -28.9770 C   0  0  0  0  0  0  0  0  0  0  0  0
  -21.6946   -4.1702  -29.3004 C   0  0  0  0  0  0  0  0  0  0  0  0
  -14.7462   -5.1298  -25.4298 C   0  0  0  0  0  0  0  0  0  0  0  0
  -16.8603   -4.8421  -25.5572 C   0  0  0  0  0  0  0  0  0  0  0  0
  -18.2169   -4.4069  -25.6121 C   0  0  0  0  0  0  0  0  0  0  0  0
  -18.9128   -6.7228  -25.9150 C   0  0  0  0  0  0  0  0  0  0  0  0
  -17.6380   -7.1409  -25.8650 C   0  0  0  0  0  0  0  0  0  0  0  0
  -19.2243   -5.2950  -25.7841 C   0  0  0  0  0  0  0  0  0  0  0  0
  -13.2591   -4.8226  -25.2847 C   0  0  0  0  0  0  0  0  0  0  0  0
  -23.8748   -5.4707  -24.8725 C   0  0  0  0  0  0  0  0  0  0  0  0
  -23.2229   -3.0499  -24.5596 C   0  0  0  0  0  0  0  0  0  0  0  0
  -21.4007   -4.8448  -24.6706 C   0  0  0  0  0  0  0  0  0  0  0  0
  -24.2155   -5.5613  -23.3893 C   0  0  0  0  0  0  0  0  0  0  0  0
  -23.5680   -3.1579  -23.0787 C   0  0  0  0  0  0  0  0  0  0  0  0
  -22.8074   -4.4010  -25.1725 C   0  0  0  0  0  0  0  0  0  0  0  0
  -25.1074   -4.2616  -21.4590 C   0  0  0  0  0  0  0  0  0  0  0  0
  -23.9833   -2.0968  -30.2612 C   0  0  0  0  0  0  0  0  0  0  0  0
  -21.9402   -4.9643  -31.5286 C   0  0  0  0  0  0  0  0  0  0  0  0
  -15.7334   -4.1777  -25.4004 N   0  0  0  0  0  0  0  0  0  0  0  0
  -16.6271   -6.2053  -25.6878 N   0  0  0  0  0  0  0  0  0  0  0  0
  -20.5230   -4.9343  -25.8425 N   0  0  0  0  0  0  0  0  0  0  0  0
  -24.6394   -4.2030  -22.8873 N   0  3  0  0  0  0  0  0  0  0  0  0
  -12.9441   -3.6094  -25.1294 O   0  5  0  0  0  0  0  0  0  0  0  0
  -12.4701   -5.8076  -25.3326 O   0  0  0  0  0  0  0  0  0  0  0  0
  -23.8977   -3.4866  -29.9550 O   0  0  0  0  0  0  0  0  0  0  0  0
  -21.2732   -4.1168  -30.5963 O   0  0  0  0  0  0  0  0  0  0  0  0
  -18.4714   -6.4170  -35.3708 H   0  0  0  0  0  0  0  0  0  0  0  0
  -20.3248   -7.9381  -34.7334 H   0  0  0  0  0  0  0  0  0  0  0  0
  -18.2190   -4.2255  -34.2345 H   0  0  0  0  0  0  0  0  0  0  0  0
  -21.9234   -7.2747  -32.9673 H   0  0  0  0  0  0  0  0  0  0  0  0
  -19.8121   -3.5530  -32.4673 H   0  0  0  0  0  0  0  0  0  0  0  0
  -24.4878   -3.6563  -27.4045 H   0  0  0  0  0  0  0  0  0  0  0  0
  -19.7662   -4.7872  -28.5686 H   0  0  0  0  0  0  0  0  0  0  0  0
  -14.8149   -7.3668  -25.6785 H   0  0  0  0  0  0  0  0  0  0  0  0
  -18.4205   -3.3452  -25.5124 H   0  0  0  0  0  0  0  0  0  0  0  0
  -19.7224   -7.4316  -26.0524 H   0  0  0  0  0  0  0  0  0  0  0  0
  -17.3573   -8.1832  -25.9566 H   0  0  0  0  0  0  0  0  0  0  0  0
  -23.5433   -6.4555  -25.2272 H   0  0  0  0  0  0  0  0  0  0  0  0
  -24.7967   -5.2489  -25.4269 H   0  0  0  0  0  0  0  0  0  0  0  0
  -24.0964   -2.6479  -25.0906 H   0  0  0  0  0  0  0  0  0  0  0  0
  -22.4260   -2.3063  -24.6910 H   0  0  0  0  0  0  0  0  0  0  0  0
  -20.9786   -4.1275  -23.9561 H   0  0  0  0  0  0  0  0  0  0  0  0
  -21.4364   -5.8197  -24.1694 H   0  0  0  0  0  0  0  0  0  0  0  0
  -25.0565   -6.2450  -23.2327 H   0  0  0  0  0  0  0  0  0  0  0  0
  -23.3650   -5.8903  -22.7834 H   0  0  0  0  0  0  0  0  0  0  0  0
  -22.7066   -3.4475  -22.4678 H   0  0  0  0  0  0  0  0  0  0  0  0
  -23.9687   -2.2076  -22.7106 H   0  0  0  0  0  0  0  0  0  0  0  0
  -24.2608   -4.5694  -20.8426 H   0  0  0  0  0  0  0  0  0  0  0  0
  -25.4544   -3.2649  -21.1799 H   0  0  0  0  0  0  0  0  0  0  0  0
  -25.9188   -4.9897  -21.4029 H   0  0  0  0  0  0  0  0  0  0  0  0
  -24.7172   -1.9426  -31.0561 H   0  0  0  0  0  0  0  0  0  0  0  0
  -23.0035   -1.7318  -30.5794 H   0  0  0  0  0  0  0  0  0  0  0  0
  -24.2991   -1.5545  -29.3668 H   0  0  0  0  0  0  0  0  0  0  0  0
  -22.7934   -4.4253  -31.9543 H   0  0  0  0  0  0  0  0  0  0  0  0
  -22.3265   -5.8437  -31.0021 H   0  0  0  0  0  0  0  0  0  0  0  0
  -25.4529   -3.9115  -23.4466 H   0  0  0  0  0  0  0  0  0  0  0  0
  1  2  2  0  0  0  0
  1  3  1  0  0  0  0
  2  4  1  0  0  0  0
  3  5  2  0  0  0  0
  4 10  2  0  0  0  0
  5 10  1  0  0  0  0
  6  9  1  0  0  0  0
  6 12  2  0  0  0  0
  7 11  1  0  0  0  0
  7 13  2  0  0  0  0
  8 14  2  0  0  0  0
  8 31  1  0  0  0  0
  9 11  2  0  0  0  0
  9 26  1  0  0  0  0
 10 29  1  0  0  0  0
 11 32  1  0  0  0  0
 12 13  1  0  0  0  0
 12 36  1  0  0  0  0
 13 37  1  0  0  0  0
 14 20  1  0  0  0  0
 14 30  1  0  0  0  0
 15 16  1  0  0  0  0
 15 30  2  0  0  0  0
 15 31  1  0  0  0  0
 16 19  2  0  0  0  0
 17 18  2  0  0  0  0
 17 19  1  0  0  0  0
 18 31  1  0  0  0  0
 19 32  1  0  0  0  0
 20 34  1  0  0  0  0
 20 35  2  0  0  0  0
 21 24  1  0  0  0  0
 21 26  1  0  0  0  0
 22 25  1  0  0  0  0
 22 26  1  0  0  0  0
 23 26  1  0  0  0  0
 23 32  1  0  0  0  0
 24 33  1  0  0  0  0
 25 33  1  0  0  0  0
 27 33  1  0  0  0  0
 28 36  1  0  0  0  0
 29 37  1  0  0  0  0
  1 38  1  0  0  0  0
  2 39  1  0  0  0  0
  3 40  1  0  0  0  0
  4 41  1  0  0  0  0
  5 42  1  0  0  0  0
  6 43  1  0  0  0  0
  7 44  1  0  0  0  0
  8 45  1  0  0  0  0
 16 46  1  0  0  0  0
 17 47  1  0  0  0  0
 18 48  1  0  0  0  0
 21 49  1  0  0  0  0
 21 50  1  0  0  0  0
 22 51  1  0  0  0  0
 22 52  1  0  0  0  0
 23 53  1  0  0  0  0
 23 54  1  0  0  0  0
 24 55  1  0  0  0  0
 24 56  1  0  0  0  0
 25 57  1  0  0  0  0
 25 58  1  0  0  0  0
 27 59  1  0  0  0  0
 27 60  1  0  0  0  0
 27 61  1  0  0  0  0
 28 62  1  0  0  0  0
 28 63  1  0  0  0  0
 28 64  1  0  0  0  0
 29 65  1  0  0  0  0
 29 66  1  0  0  0  0
 33 67  1  0  0  0  0
M  CHG  2  33   1  34  -1
M  END
> <SMILES>
COc1cc2c(cc1OCc1ccccc1)N(CC12CCN(C)CC1)c1ccn2cc(nc2c1)C(=O)O

> <FORMATTED_ID>
H3D-014973

> <MOLFORMULA>
C29H30N4O4

> <Exact Mass>
498.23

> <XLogP>
5.19

> <TPSA_NOPS>
79.5

> <s_m_source_file>
ligprep_h3d.sdf

> <i_m_source_file_index>
5343

> <i_lp_mmshare_version>
55123

> <i_f3d_flags>
0

> <s_epik_input>
W2NIXTFbY0hdW2NIXVtjSF1bY0hdYzFbQ0gyXU9jKGMoW2NIXTIpT1tDSDNdKVtjSF1jKGMyQzM0W0NIMl1bQ0gyXU4oW0NIM10pW0NIMl1bQ0gyXTQpTihbQ0gyXTMpYyhbY0hdW2NIXTUpW2NIXWMobjU2KW5jKFtjSF02KUMoPU8pW09IXQ==

> <s_epik_cmdline>
J2VwaWtfcHl0aG9uJywgJy1waHQnLCAnMC41JywgJy1waCcsICc3LjUnLCAnLXRuJywgJzgnLCAnLW1hJywgJzUwMCcsICctaW1hZScsICc8aW5maWxlLm1hZT4nLCAnLW9tYWUnLCAnPG91dGZpbGUubWFlPic=

> <r_lp_tautomer_probability>
1

> <r_epik_Ionization_Penalty>
0.0908415

> <r_epik_Ionization_Penalty_Charging>
0.0908415

> <r_epik_Ionization_Penalty_Neutral>
3.07946e-10

> <r_epik_State_Penalty>
0.0731933

> <r_epik_Charging_Adjusted_Penalty>
0.164035

> <i_epik_Tot_Q>
0

> <i_epik_Tot_abs_Q>
2

> <s_lp_Force_Field>
S-OPLS

> <r_lp_Energy>
84.6656

> <b_lp_Chiralities_Consistent>
1

> <s_lp_Variant>
ligprep_h3d.sdf:5343-1

> <ROCS_ShapeQuery>
_7L13

> <ROCS_TanimotoCombo>
0.695 

> <ROCS_ShapeTanimoto>
0.608 

> <ROCS_ColorTanimoto>
0.087 

> <ROCS_RefTversky>
0.769 

> <ROCS_RefColorTversky>
0.199 

> <ROCS_RefTverskyCombo>
0.968 

> <ROCS_FitTversky>
0.743 

> <ROCS_FitColorTversky>
0.133 

> <ROCS_FitTverskyCombo>
0.877 

> <ROCS_ColorScore>
-1.839

> <ROCS_Overlap>
1279.845

> <ROCS_Rank>
540                 

$$$$
ligprep_h3d.sdf:734_37
  -OEChem-08212117123D

 57 62  0     1  0  0  0  0  0999 V2000
  -20.9877   -5.1470  -29.5053 C   0  0  0  0  0  0  0  0  0  0  0  0
  -21.7540   -4.3800  -30.3853 C   0  0  0  0  0  0  0  0  0  0  0  0
  -21.0999   -4.9032  -28.1153 C   0  0  0  0  0  0  0  0  0  0  0  0
  -21.9880   -3.9396  -27.5812 C   0  0  0  0  0  0  0  0  0  0  0  0
  -22.5918   -3.4204  -29.8609 C   0  0  0  0  0  0  0  0  0  0  0  0
  -22.7383   -3.1653  -28.4972 C   0  0  0  0  0  0  0  0  0  0  0  0
  -21.9480   -4.2713  -31.7750 C   0  0  0  0  0  0  0  0  0  0  0  0
  -18.9027   -3.8172  -26.2423 C   0  0  0  0  0  0  0  0  0  0  0  0
  -19.2345   -6.0264  -25.0131 C   0  0  0  0  0  0  0  0  0  0  0  0
  -17.0559   -5.1607  -25.8356 C   0  0  0  0  0  0  0  0  0  0  0  0
  -20.2489   -5.7328  -27.1916 C   0  0  0  0  0  0  0  0  0  0  0  0
  -20.3871   -4.5696  -33.7152 C   0  0  0  0  0  0  0  0  0  0  0  0
  -21.3650   -6.5313  -32.6913 C   0  0  0  0  0  0  0  0  0  0  0  0
  -23.0562   -2.8000  -25.6465 C   0  0  0  0  0  0  0  0  0  0  0  0
  -21.2027   -4.4626  -25.2371 C   0  0  2  0  0  0  0  0  0  0  0  0
  -19.6786   -5.8196  -34.2326 C   0  0  1  0  0  0  0  0  0  0  0  0
  -20.6997   -6.9203  -34.0043 C   0  0  1  0  0  0  0  0  0  0  0  0
  -23.4241   -3.1176  -24.1942 C   0  0  1  0  0  0  0  0  0  0  0  0
  -21.0461   -3.5256  -24.0035 C   0  0  2  0  0  0  0  0  0  0  0  0
  -19.8777   -4.9674  -25.8975 C   0  0  2  0  0  0  0  0  0  0  0  0
  -24.4050   -4.2827  -24.0780 C   0  0  0  0  0  0  0  0  0  0  0  0
  -20.0839   -3.9920  -22.9183 C   0  0  0  0  0  0  0  0  0  0  0  0
  -22.8322   -3.3202  -32.0905 N   0  0  0  0  0  0  0  0  0  0  0  0
  -17.6401   -4.1632  -26.5006 N   0  5  0  0  0  0  0  0  0  0  0  0
  -17.8551   -6.0094  -25.0717 N   0  0  0  0  0  0  0  0  0  0  0  0
  -22.0959   -3.7632  -26.1996 N   0  0  3  0  0  0  0  0  0  0  0  0
  -21.2759   -5.0743  -32.6719 N   0  0  0  0  0  0  0  0  0  0  0  0
  -19.3145   -2.6656  -26.3802 O   0  0  0  0  0  0  0  0  0  0  0  0
  -19.8668   -6.8634  -24.3727 O   0  0  0  0  0  0  0  0  0  0  0  0
  -15.8418   -5.3762  -25.8824 O   0  0  0  0  0  0  0  0  0  0  0  0
  -23.2370   -2.7812  -30.8748 O   0  0  0  0  0  0  0  0  0  0  0  0
  -22.3106   -3.3770  -23.3442 O   0  0  0  0  0  0  0  0  0  0  0  0
  -19.3779   -5.7088  -35.6113 O   0  0  0  0  0  0  0  0  0  0  0  0
  -23.5059   -2.1320  -28.1304 F   0  0  0  0  0  0  0  0  0  0  0  0
  -20.0720   -8.1135  -33.8767 F   0  0  0  0  0  0  0  0  0  0  0  0
  -20.3109   -5.9096  -29.8801 H   0  0  0  0  0  0  0  0  0  0  0  0
  -20.8090   -6.6480  -26.9556 H   0  0  0  0  0  0  0  0  0  0  0  0
  -19.3382   -6.0526  -27.7150 H   0  0  0  0  0  0  0  0  0  0  0  0
  -19.6625   -3.8469  -33.3214 H   0  0  0  0  0  0  0  0  0  0  0  0
  -20.9672   -4.0739  -34.5038 H   0  0  0  0  0  0  0  0  0  0  0  0
  -22.4041   -6.8787  -32.6604 H   0  0  0  0  0  0  0  0  0  0  0  0
  -20.8310   -6.9602  -31.8348 H   0  0  0  0  0  0  0  0  0  0  0  0
  -23.9678   -2.8448  -26.2774 H   0  0  0  0  0  0  0  0  0  0  0  0
  -22.7464   -1.7442  -25.6882 H   0  0  0  0  0  0  0  0  0  0  0  0
  -21.7755   -5.3431  -24.9041 H   0  0  0  0  0  0  0  0  0  0  0  0
  -18.7539   -6.0183  -33.6792 H   0  0  0  0  0  0  0  0  0  0  0  0
  -21.4197   -6.9938  -34.8267 H   0  0  0  0  0  0  0  0  0  0  0  0
  -23.9735   -2.2132  -23.7568 H   0  0  0  0  0  0  0  0  0  0  0  0
  -20.7176   -2.5170  -24.3129 H   0  0  0  0  0  0  0  0  0  0  0  0
  -23.9539   -5.1914  -24.4769 H   0  0  0  0  0  0  0  0  0  0  0  0
  -25.3132   -4.0631  -24.6396 H   0  0  0  0  0  0  0  0  0  0  0  0
  -24.6667   -4.4473  -23.0326 H   0  0  0  0  0  0  0  0  0  0  0  0
  -20.3635   -4.9880  -22.5749 H   0  0  0  0  0  0  0  0  0  0  0  0
  -20.1143   -3.3049  -22.0726 H   0  0  0  0  0  0  0  0  0  0  0  0
  -19.0674   -4.0255  -23.3106 H   0  0  0  0  0  0  0  0  0  0  0  0
  -17.3696   -6.6899  -24.4949 H   0  0  0  0  0  0  0  0  0  0  0  0
  -18.7979   -4.9352  -35.7162 H   0  0  0  0  0  0  0  0  0  0  0  0
  1  2  2  0  0  0  0
  1  3  1  0  0  0  0
  2  5  1  0  0  0  0
  2  7  1  0  0  0  0
  3  4  2  0  0  0  0
  3 11  1  0  0  0  0
  4  6  1  0  0  0  0
  4 26  1  0  0  0  0
  5  6  2  0  0  0  0
  5 31  1  0  0  0  0
  6 34  1  0  0  0  0
  7 23  2  0  0  0  0
  7 27  1  0  0  0  0
  8 20  1  0  0  0  0
  8 24  1  0  0  0  0
  8 28  2  0  0  0  0
  9 20  1  0  0  0  0
  9 25  1  0  0  0  0
  9 29  2  0  0  0  0
 10 24  1  0  0  0  0
 10 25  1  0  0  0  0
 10 30  2  0  0  0  0
 11 20  1  0  0  0  0
 12 16  1  0  0  0  0
 12 27  1  0  0  0  0
 13 17  1  0  0  0  0
 13 27  1  0  0  0  0
 14 18  1  0  0  0  0
 14 26  1  0  0  0  0
 15 19  1  0  0  0  0
 15 20  1  0  0  0  0
 15 26  1  0  0  0  0
 16 17  1  0  0  0  0
 16 33  1  0  0  0  0
 17 35  1  0  0  0  0
 18 21  1  0  0  0  0
 18 32  1  0  0  0  0
 19 22  1  0  0  0  0
 19 32  1  0  0  0  0
 23 31  1  0  0  0  0
  1 36  1  0  0  0  0
 11 37  1  0  0  0  0
 11 38  1  0  0  0  0
 12 39  1  0  0  0  0
 12 40  1  0  0  0  0
 13 41  1  0  0  0  0
 13 42  1  0  0  0  0
 14 43  1  0  0  0  0
 14 44  1  0  0  0  0
 15 45  1  0  0  0  0
 16 46  1  0  0  0  0
 17 47  1  0  0  0  0
 18 48  1  0  0  0  0
 19 49  1  0  0  0  0
 21 50  1  0  0  0  0
 21 51  1  0  0  0  0
 21 52  1  0  0  0  0
 22 53  1  0  0  0  0
 22 54  1  0  0  0  0
 22 55  1  0  0  0  0
 25 56  1  0  0  0  0
 33 57  1  0  0  0  0
M  CHG  1  24  -1
M  END
> <SMILES>
C[C@@H]1CN2[C@H]([C@H](C)O1)C1(Cc3cc4c(noc4c(c32)F)N2C[C@H](O)[C@@H](F)C2)C(=O)NC(=O)NC1=O

> <FORMATTED_ID>
H3D-004989

> <MOLFORMULA>
C22H23F2N5O6

> <Exact Mass>
491.16

> <XLogP>
-0.49

> <TPSA_NOPS>
137.5

> <s_m_source_file>
ligprep_h3d.sdf

> <i_m_source_file_index>
734

> <i_lp_mmshare_version>
55123

> <i_f3d_flags>
0

> <s_epik_input>
Tz1DMVtOSF1DKD1PKVtOSF1DKD1PKUMxMltDQEBIXTNOKFtDSDJdW0NAQEhdKFtDSDNdKU9bQ0BIXTNbQ0gzXSljNGMoW0NIMl0yKVtjSF1jNWMoYzRGKW9uYzVONltDSDJdW0NASF0oW09IXSlbQ0BASF0oRilbQ0gyXTY=

> <s_epik_cmdline>
J2VwaWtfcHl0aG9uJywgJy1waHQnLCAnMC41JywgJy1waCcsICc3LjUnLCAnLXRuJywgJzgnLCAnLW1hJywgJzUwMCcsICctaW1hZScsICc8aW5maWxlLm1hZT4nLCAnLW9tYWUnLCAnPG91dGZpbGUubWFlPic=

> <r_lp_tautomer_probability>
1

> <r_epik_Ionization_Penalty>
0.455398

> <r_epik_Ionization_Penalty_Charging>
0.455373

> <r_epik_Ionization_Penalty_Neutral>
2.49521e-05

> <r_epik_State_Penalty>
0.458483

> <r_epik_Charging_Adjusted_Penalty>
0.913857

> <i_epik_Tot_Q>
-1

> <i_epik_Tot_abs_Q>
1

> <s_lp_Force_Field>
S-OPLS

> <r_lp_Energy>
52.99

> <b_lp_Chiralities_Consistent>
1

> <s_lp_Variant>
ligprep_h3d.sdf:734-2

> <ROCS_ShapeQuery>
_7L13

> <ROCS_TanimotoCombo>
0.748 

> <ROCS_ShapeTanimoto>
0.623 

> <ROCS_ColorTanimoto>
0.125 

> <ROCS_RefTversky>
0.769 

> <ROCS_RefColorTversky>
0.297 

> <ROCS_RefTverskyCombo>
1.066 

> <ROCS_FitTversky>
0.767 

> <ROCS_FitColorTversky>
0.177 

> <ROCS_FitTverskyCombo>
0.944 

> <ROCS_ColorScore>
-2.773

> <ROCS_Overlap>
1277.543

> <ROCS_Rank>
541                 

$$$$
ligprep_h3d.sdf:4943_1206
  -OEChem-08212117123D

 61 65  0     1  0  0  0  0  0999 V2000
  -18.7981   -5.2915  -34.7179 C   0  0  0  0  0  0  0  0  0  0  0  0
  -22.5194   -6.8297  -33.4355 C   0  0  0  0  0  0  0  0  0  0  0  0
  -24.9457   -4.2253  -25.2590 C   0  0  0  0  0  0  0  0  0  0  0  0
  -23.4500   -5.2385  -23.6549 C   0  0  0  0  0  0  0  0  0  0  0  0
  -21.6655   -7.6471  -34.1759 C   0  0  0  0  0  0  0  0  0  0  0  0
  -25.8506   -3.9416  -24.2361 C   0  0  0  0  0  0  0  0  0  0  0  0
  -24.3549   -4.9548  -22.6319 C   0  0  0  0  0  0  0  0  0  0  0  0
  -20.9082   -5.0337  -33.5601 C   0  0  0  0  0  0  0  0  0  0  0  0
  -16.8317   -5.1860  -26.6968 C   0  0  0  0  0  0  0  0  0  0  0  0
  -18.0202   -4.1349  -24.8749 C   0  0  0  0  0  0  0  0  0  0  0  0
  -15.7696   -4.9472  -24.5399 C   0  0  0  0  0  0  0  0  0  0  0  0
  -20.0543   -5.8512  -34.3005 C   0  0  0  0  0  0  0  0  0  0  0  0
  -22.1408   -5.5229  -33.1277 C   0  0  0  0  0  0  0  0  0  0  0  0
  -17.9780   -4.5649  -26.2011 C   0  0  0  0  0  0  0  0  0  0  0  0
  -23.7454   -4.8738  -24.9684 C   0  0  0  0  0  0  0  0  0  0  0  0
  -20.4329   -7.1579  -34.6083 C   0  0  0  0  0  0  0  0  0  0  0  0
  -25.5552   -4.3063  -22.9226 C   0  0  0  0  0  0  0  0  0  0  0  0
  -15.7275   -5.3772  -25.8662 C   0  0  0  0  0  0  0  0  0  0  0  0
  -16.9160   -4.3261  -24.0442 C   0  0  0  0  0  0  0  0  0  0  0  0
  -22.3047   -3.6375  -31.5012 C   0  0  0  0  0  0  0  0  0  0  0  0
  -22.1823   -5.3827  -29.6637 C   0  0  0  0  0  0  0  0  0  0  0  0
  -19.3115   -4.7050  -28.4010 C   0  0  0  0  0  0  0  0  0  0  0  0
  -20.2209   -3.5189  -26.9187 C   0  0  0  0  0  0  0  0  0  0  0  0
  -21.1790   -3.1927  -29.3395 C   0  0  0  0  0  0  0  0  0  0  0  0
  -21.8275   -5.2496  -28.1837 C   0  0  1  0  0  0  0  0  0  0  0  0
  -20.7541   -4.1495  -28.2291 C   0  0  0  0  0  0  0  0  0  0  0  0
  -23.0596   -4.6446  -32.3316 C   0  0  0  0  0  0  0  0  0  0  0  0
  -23.0450   -4.8287  -27.3627 C   0  0  0  0  0  0  0  0  0  0  0  0
  -17.7838   -4.8396  -35.0551 N   0  0  0  0  0  0  0  0  0  0  0  0
  -19.0879   -4.3720  -27.0358 N   0  0  0  0  0  0  0  0  0  0  0  0
  -21.9235   -4.0643  -30.2391 N   0  0  0  0  0  0  0  0  0  0  0  0
  -22.8393   -5.1579  -25.9927 N   0  0  0  0  0  0  0  0  0  0  0  0
  -19.6696   -7.9357  -35.2880 O   0  5  0  0  0  0  0  0  0  0  0  0
  -22.0665   -2.5149  -31.9500 O   0  0  0  0  0  0  0  0  0  0  0  0
  -26.4242   -4.0339  -21.9403 F   0  0  0  0  0  0  0  0  0  0  0  0
  -14.6262   -5.9721  -26.3431 F   0  0  0  0  0  0  0  0  0  0  0  0
  -16.9558   -3.9113  -22.7712 F   0  0  0  0  0  0  0  0  0  0  0  0
  -23.4779   -7.2190  -33.1026 H   0  0  0  0  0  0  0  0  0  0  0  0
  -25.1859   -3.9364  -26.2790 H   0  0  0  0  0  0  0  0  0  0  0  0
  -22.5178   -5.7445  -23.4171 H   0  0  0  0  0  0  0  0  0  0  0  0
  -21.9876   -8.6628  -34.4012 H   0  0  0  0  0  0  0  0  0  0  0  0
  -26.7851   -3.4365  -24.4620 H   0  0  0  0  0  0  0  0  0  0  0  0
  -24.1255   -5.2388  -21.6091 H   0  0  0  0  0  0  0  0  0  0  0  0
  -20.6215   -4.0128  -33.3150 H   0  0  0  0  0  0  0  0  0  0  0  0
  -16.7878   -5.5241  -27.7287 H   0  0  0  0  0  0  0  0  0  0  0  0
  -18.9080   -3.6489  -24.4787 H   0  0  0  0  0  0  0  0  0  0  0  0
  -14.9090   -5.0951  -23.8942 H   0  0  0  0  0  0  0  0  0  0  0  0
  -21.5068   -6.0837  -30.1661 H   0  0  0  0  0  0  0  0  0  0  0  0
  -23.2118   -5.6988  -29.8533 H   0  0  0  0  0  0  0  0  0  0  0  0
  -19.2354   -5.7837  -28.5825 H   0  0  0  0  0  0  0  0  0  0  0  0
  -18.6516   -4.1683  -29.0893 H   0  0  0  0  0  0  0  0  0  0  0  0
  -19.9657   -2.4561  -26.9589 H   0  0  0  0  0  0  0  0  0  0  0  0
  -20.8084   -3.7321  -26.0184 H   0  0  0  0  0  0  0  0  0  0  0  0
  -21.8670   -2.4205  -28.9740 H   0  0  0  0  0  0  0  0  0  0  0  0
  -20.3446   -2.7114  -29.8617 H   0  0  0  0  0  0  0  0  0  0  0  0
  -21.4404   -6.1942  -27.7879 H   0  0  0  0  0  0  0  0  0  0  0  0
  -23.7378   -4.1079  -32.9972 H   0  0  0  0  0  0  0  0  0  0  0  0
  -23.6846   -5.2411  -31.6653 H   0  0  0  0  0  0  0  0  0  0  0  0
  -23.1608   -3.7534  -27.4861 H   0  0  0  0  0  0  0  0  0  0  0  0
  -23.9039   -5.3653  -27.7618 H   0  0  0  0  0  0  0  0  0  0  0  0
  -21.9764   -5.6361  -25.7204 H   0  0  0  0  0  0  0  0  0  0  0  0
  1 12  1  0  0  0  0
  1 29  3  0  0  0  0
  2  5  1  0  0  0  0
  2 13  2  0  0  0  0
  3  6  1  0  0  0  0
  3 15  2  0  0  0  0
  4  7  2  0  0  0  0
  4 15  1  0  0  0  0
  5 16  2  0  0  0  0
  6 17  2  0  0  0  0
  7 17  1  0  0  0  0
  8 12  2  0  0  0  0
  8 13  1  0  0  0  0
  9 14  2  0  0  0  0
  9 18  1  0  0  0  0
 10 14  1  0  0  0  0
 10 19  2  0  0  0  0
 11 18  2  0  0  0  0
 11 19  1  0  0  0  0
 12 16  1  0  0  0  0
 13 27  1  0  0  0  0
 14 30  1  0  0  0  0
 15 32  1  0  0  0  0
 16 33  1  0  0  0  0
 17 35  1  0  0  0  0
 18 36  1  0  0  0  0
 19 37  1  0  0  0  0
 20 27  1  0  0  0  0
 20 31  1  0  0  0  0
 20 34  2  0  0  0  0
 21 25  1  0  0  0  0
 21 31  1  0  0  0  0
 22 26  1  0  0  0  0
 22 30  1  0  0  0  0
 23 26  1  0  0  0  0
 23 30  1  0  0  0  0
 24 26  1  0  0  0  0
 24 31  1  0  0  0  0
 25 26  1  0  0  0  0
 25 28  1  0  0  0  0
 28 32  1  0  0  0  0
  2 38  1  0  0  0  0
  3 39  1  0  0  0  0
  4 40  1  0  0  0  0
  5 41  1  0  0  0  0
  6 42  1  0  0  0  0
  7 43  1  0  0  0  0
  8 44  1  0  0  0  0
  9 45  1  0  0  0  0
 10 46  1  0  0  0  0
 11 47  1  0  0  0  0
 21 48  1  0  0  0  0
 21 49  1  0  0  0  0
 22 50  1  0  0  0  0
 22 51  1  0  0  0  0
 23 52  1  0  0  0  0
 23 53  1  0  0  0  0
 24 54  1  0  0  0  0
 24 55  1  0  0  0  0
 25 56  1  0  0  0  0
 27 57  1  0  0  0  0
 27 58  1  0  0  0  0
 28 59  1  0  0  0  0
 28 60  1  0  0  0  0
 32 61  1  0  0  0  0
M  CHG  1  33  -1
M  END
> <SMILES>
Oc1ccc(cc1C#N)CC(=O)N1CC(CNc2ccc(cc2)F)C2(C1)CN(C2)c1cc(cc(c1)F)F

> <FORMATTED_ID>
H3D-008432

> <MOLFORMULA>
C28H25F3N4O2

> <Exact Mass>
506.19

> <XLogP>
3.84

> <TPSA_NOPS>
79.6

> <s_m_source_file>
ligprep_h3d.sdf

> <i_m_source_file_index>
4943

> <i_lp_mmshare_version>
55123

> <i_f3d_flags>
0

> <s_epik_input>
W09IXWMxW2NIXVtjSF1jKFtjSF1jMUMjTilbQ0gyXUMoPU8pTihbQ0gyXTIpW0NIMl1bQ0BIXShbQ0gyXVtOSF1jM1tjSF1bY0hdYyhGKVtjSF1bY0hdMylDMjRbQ0gyXU4oW0NIMl00KWM1W2NIXWMoRilbY0hdYyhGKVtjSF01

> <s_epik_cmdline>
J2VwaWtfcHl0aG9uJywgJy1waHQnLCAnMC41JywgJy1waCcsICc3LjUnLCAnLXRuJywgJzgnLCAnLW1hJywgJzUwMCcsICctaW1hZScsICc8aW5maWxlLm1hZT4nLCAnLW9tYWUnLCAnPG91dGZpbGUubWFlPic=

> <r_epik_Ionization_Penalty>
0.205326

> <r_epik_Ionization_Penalty_Charging>
0.202888

> <r_epik_Ionization_Penalty_Neutral>
0.00243734

> <r_epik_State_Penalty>
0.192786

> <r_epik_Charging_Adjusted_Penalty>
0.395674

> <i_epik_Tot_Q>
-1

> <i_epik_Tot_abs_Q>
1

> <s_lp_Force_Field>
S-OPLS

> <r_lp_Energy>
37.2678

> <b_lp_Chiralities_Consistent>
1

> <s_lp_Variant>
ligprep_h3d.sdf:4943-1

> <ROCS_ShapeQuery>
_7L13

> <ROCS_TanimotoCombo>
0.674 

> <ROCS_ShapeTanimoto>
0.615 

> <ROCS_ColorTanimoto>
0.059 

> <ROCS_RefTversky>
0.769 

> <ROCS_RefColorTversky>
0.117 

> <ROCS_RefTverskyCombo>
0.886 

> <ROCS_FitTversky>
0.755 

> <ROCS_FitColorTversky>
0.106 

> <ROCS_FitTverskyCombo>
0.861 

> <ROCS_ColorScore>
-1.057

> <ROCS_Overlap>
1278.523

> <ROCS_Rank>
542                 

$$$$
ligprep_h3d.sdf:1067_1954
  -OEChem-08212117123D

 64 69  0     1  0  0  0  0  0999 V2000
  -20.9888   -5.1441  -29.5094 C   0  0  0  0  0  0  0  0  0  0  0  0
  -21.7583   -4.3791  -30.3882 C   0  0  0  0  0  0  0  0  0  0  0  0
  -21.0985   -4.9012  -28.1185 C   0  0  0  0  0  0  0  0  0  0  0  0
  -21.9882   -3.9409  -27.5822 C   0  0  0  0  0  0  0  0  0  0  0  0
  -22.5970   -3.4217  -29.8618 C   0  0  0  0  0  0  0  0  0  0  0  0
  -22.7411   -3.1676  -28.4976 C   0  0  0  0  0  0  0  0  0  0  0  0
  -21.9553   -4.2705  -31.7773 C   0  0  0  0  0  0  0  0  0  0  0  0
  -18.9209   -3.8578  -26.2060 C   0  0  0  0  0  0  0  0  0  0  0  0
  -19.2830   -6.1201  -25.0239 C   0  0  0  0  0  0  0  0  0  0  0  0
  -17.0170   -5.3807  -25.7289 C   0  0  0  0  0  0  0  0  0  0  0  0
  -21.8486   -5.3953  -33.9639 C   0  0  0  0  0  0  0  0  0  0  0  0
  -20.2389   -5.7303  -27.2020 C   0  0  0  0  0  0  0  0  0  0  0  0
  -23.0392   -2.7845  -25.6480 C   0  0  0  0  0  0  0  0  0  0  0  0
  -21.2202   -4.4827  -25.2369 C   0  0  2  0  0  0  0  0  0  0  0  0
  -19.9892   -5.5980  -32.5918 C   0  0  1  0  0  0  0  0  0  0  0  0
  -23.4120   -3.0921  -24.1950 C   0  0  1  0  0  0  0  0  0  0  0  0
  -21.0436   -3.5494  -24.0038 C   0  0  2  0  0  0  0  0  0  0  0  0
  -20.0165   -6.7228  -33.6206 C   0  0  1  0  0  0  0  0  0  0  0  0
  -19.8973   -4.9998  -25.8793 C   0  0  0  0  0  0  0  0  0  0  0  0
  -24.4121   -4.2404  -24.0748 C   0  0  0  0  0  0  0  0  0  0  0  0
  -20.0937   -4.0425  -22.9188 C   0  0  0  0  0  0  0  0  0  0  0  0
  -20.4506   -8.0617  -33.0378 C   0  0  0  0  0  0  0  0  0  0  0  0
  -18.7549   -4.8832  -35.2448 C   0  0  0  0  0  0  0  0  0  0  0  0
  -18.9157   -4.5612  -32.9225 C   0  0  0  0  0  0  0  0  0  0  0  0
  -22.8429   -3.3217  -32.0907 N   0  0  0  0  0  0  0  0  0  0  0  0
  -17.5819   -4.2153  -26.2266 N   0  0  0  0  0  0  0  0  0  0  0  0
  -17.9074   -6.2577  -25.1260 N   0  0  0  0  0  0  0  0  0  0  0  0
  -22.0954   -3.7646  -26.2006 N   0  0  3  0  0  0  0  0  0  0  0  0
  -21.3147   -5.0400  -32.7285 N   0  0  0  0  0  0  0  0  0  0  0  0
  -19.2867   -2.7184  -26.4942 O   0  0  0  0  0  0  0  0  0  0  0  0
  -19.9634   -6.9038  -24.3606 O   0  0  0  0  0  0  0  0  0  0  0  0
  -15.8061   -5.6022  -25.7819 O   0  0  0  0  0  0  0  0  0  0  0  0
  -22.8894   -5.0035  -34.4751 O   0  0  0  0  0  0  0  0  0  0  0  0
  -23.2462   -2.7839  -30.8741 O   0  0  0  0  0  0  0  0  0  0  0  0
  -21.0002   -6.2915  -34.5752 O   0  0  0  0  0  0  0  0  0  0  0  0
  -22.3027   -3.3658  -23.3446 O   0  0  0  0  0  0  0  0  0  0  0  0
  -19.1936   -4.0211  -34.2004 O   0  0  0  0  0  0  0  0  0  0  0  0
  -23.5098   -2.1346  -28.1327 F   0  0  0  0  0  0  0  0  0  0  0  0
  -20.3116   -5.9050  -29.8869 H   0  0  0  0  0  0  0  0  0  0  0  0
  -20.7786   -6.6663  -27.0022 H   0  0  0  0  0  0  0  0  0  0  0  0
  -19.3115   -6.0072  -27.7220 H   0  0  0  0  0  0  0  0  0  0  0  0
  -23.9518   -2.8157  -26.2789 H   0  0  0  0  0  0  0  0  0  0  0  0
  -22.7141   -1.7334  -25.6902 H   0  0  0  0  0  0  0  0  0  0  0  0
  -21.8092   -5.3530  -24.9085 H   0  0  0  0  0  0  0  0  0  0  0  0
  -19.8382   -5.9708  -31.5723 H   0  0  0  0  0  0  0  0  0  0  0  0
  -23.9464   -2.1768  -23.7608 H   0  0  0  0  0  0  0  0  0  0  0  0
  -20.6857   -2.5511  -24.3164 H   0  0  0  0  0  0  0  0  0  0  0  0
  -19.0578   -6.8363  -34.1380 H   0  0  0  0  0  0  0  0  0  0  0  0
  -23.9761   -5.1578  -24.4704 H   0  0  0  0  0  0  0  0  0  0  0  0
  -25.3165   -4.0077  -24.6371 H   0  0  0  0  0  0  0  0  0  0  0  0
  -24.6764   -4.3969  -23.0288 H   0  0  0  0  0  0  0  0  0  0  0  0
  -20.4027   -5.0289  -22.5730 H   0  0  0  0  0  0  0  0  0  0  0  0
  -20.1021   -3.3531  -22.0746 H   0  0  0  0  0  0  0  0  0  0  0  0
  -19.0794   -4.1073  -23.3127 H   0  0  0  0  0  0  0  0  0  0  0  0
  -21.4047   -7.9522  -32.5220 H   0  0  0  0  0  0  0  0  0  0  0  0
  -19.7042   -8.4192  -32.3283 H   0  0  0  0  0  0  0  0  0  0  0  0
  -20.5618   -8.7970  -33.8348 H   0  0  0  0  0  0  0  0  0  0  0  0
  -18.9871   -4.4318  -36.2125 H   0  0  0  0  0  0  0  0  0  0  0  0
  -19.2540   -5.8512  -35.1532 H   0  0  0  0  0  0  0  0  0  0  0  0
  -17.6747   -5.0230  -35.1603 H   0  0  0  0  0  0  0  0  0  0  0  0
  -17.9357   -5.0360  -32.9351 H   0  0  0  0  0  0  0  0  0  0  0  0
  -18.9315   -3.7640  -32.1809 H   0  0  0  0  0  0  0  0  0  0  0  0
  -16.9436   -3.5505  -26.6532 H   0  0  0  0  0  0  0  0  0  0  0  0
  -17.4994   -7.0647  -24.6630 H   0  0  0  0  0  0  0  0  0  0  0  0
  1  2  2  0  0  0  0
  1  3  1  0  0  0  0
  2  5  1  0  0  0  0
  2  7  1  0  0  0  0
  3  4  2  0  0  0  0
  3 12  1  0  0  0  0
  4  6  1  0  0  0  0
  4 28  1  0  0  0  0
  5  6  2  0  0  0  0
  5 34  1  0  0  0  0
  6 38  1  0  0  0  0
  7 25  2  0  0  0  0
  7 29  1  0  0  0  0
  8 19  1  0  0  0  0
  8 26  1  0  0  0  0
  8 30  2  0  0  0  0
  9 19  1  0  0  0  0
  9 27  1  0  0  0  0
  9 31  2  0  0  0  0
 10 26  1  0  0  0  0
 10 27  1  0  0  0  0
 10 32  2  0  0  0  0
 11 29  1  0  0  0  0
 11 33  2  0  0  0  0
 11 35  1  0  0  0  0
 12 19  1  0  0  0  0
 13 16  1  0  0  0  0
 13 28  1  0  0  0  0
 14 17  1  0  0  0  0
 14 19  1  0  0  0  0
 14 28  1  0  0  0  0
 15 18  1  0  0  0  0
 15 24  1  0  0  0  0
 15 29  1  0  0  0  0
 16 20  1  0  0  0  0
 16 36  1  0  0  0  0
 17 21  1  0  0  0  0
 17 36  1  0  0  0  0
 18 22  1  0  0  0  0
 18 35  1  0  0  0  0
 23 37  1  0  0  0  0
 24 37  1  0  0  0  0
 25 34  1  0  0  0  0
  1 39  1  0  0  0  0
 12 40  1  0  0  0  0
 12 41  1  0  0  0  0
 13 42  1  0  0  0  0
 13 43  1  0  0  0  0
 14 44  1  0  0  0  0
 15 45  1  0  0  0  0
 16 46  1  0  0  0  0
 17 47  1  0  0  0  0
 18 48  1  0  0  0  0
 20 49  1  0  0  0  0
 20 50  1  0  0  0  0
 20 51  1  0  0  0  0
 21 52  1  0  0  0  0
 21 53  1  0  0  0  0
 21 54  1  0  0  0  0
 22 55  1  0  0  0  0
 22 56  1  0  0  0  0
 22 57  1  0  0  0  0
 23 58  1  0  0  0  0
 23 59  1  0  0  0  0
 23 60  1  0  0  0  0
 24 61  1  0  0  0  0
 24 62  1  0  0  0  0
 26 63  1  0  0  0  0
 27 64  1  0  0  0  0
M  END
> <SMILES>
COCC1[C@@H](C)OC(=O)N1c1noc2c(c3c(cc12)CC1([C@H]2[C@H](C)O[C@H](C)CN23)C(=O)NC(=O)NC1=O)F

> <FORMATTED_ID>
H3D-006629

> <MOLFORMULA>
C24H26FN5O8

> <Exact Mass>
531.18

> <XLogP>
0.72

> <TPSA_NOPS>
152.8

> <s_m_source_file>
ligprep_h3d.sdf

> <i_m_source_file_index>
1067

> <i_lp_mmshare_version>
55123

> <i_f3d_flags>
0

> <s_epik_input>
W0NIM11PW0NIMl1bQ0BASF0xW0NAQEhdKFtDSDNdKU9DKD1PKU4xYzJub2MoYzNGKWMyW2NIXWMoW0NIMl00KWMzTihbQ0gyXVtDQEBIXShbQ0gzXSlPW0NASF01W0NIM10pW0NASF01QzQ2Qyg9TylbTkhdQyg9TylbTkhdQzY9Tw==

> <s_epik_cmdline>
J2VwaWtfcHl0aG9uJywgJy1waHQnLCAnMC41JywgJy1waCcsICc3LjUnLCAnLXRuJywgJzgnLCAnLW1hJywgJzUwMCcsICctaW1hZScsICc8aW5maWxlLm1hZT4nLCAnLW9tYWUnLCAnPG91dGZpbGUubWFlPic=

> <r_lp_tautomer_probability>
1

> <r_epik_Ionization_Penalty>
0.369125

> <r_epik_Ionization_Penalty_Charging>
0

> <r_epik_Ionization_Penalty_Neutral>
0.369125

> <r_epik_State_Penalty>
0.366447

> <r_epik_Charging_Adjusted_Penalty>
0.366447

> <i_epik_Tot_Q>
0

> <i_epik_Tot_abs_Q>
0

> <s_epik_Chemistry_Notes>
This compound has an ester and may undergo hydrolysis at high or low pH.

> <s_lp_Force_Field>
S-OPLS

> <r_lp_Energy>
37.7851

> <b_lp_Chiralities_Consistent>
1

> <s_lp_Variant>
ligprep_h3d.sdf:1067-1

> <ROCS_ShapeQuery>
_7L13

> <ROCS_TanimotoCombo>
0.719 

> <ROCS_ShapeTanimoto>
0.589 

> <ROCS_ColorTanimoto>
0.130 

> <ROCS_RefTversky>
0.769 

> <ROCS_RefColorTversky>
0.298 

> <ROCS_RefTverskyCombo>
1.067 

> <ROCS_FitTversky>
0.715 

> <ROCS_FitColorTversky>
0.188 

> <ROCS_FitTverskyCombo>
0.903 

> <ROCS_ColorScore>
-2.772

> <ROCS_Overlap>
1282.438

> <ROCS_Rank>
543                 

$$$$
ligprep_h3d.sdf:1185_1733
  -OEChem-08212117123D

 77 82  0     1  0  0  0  0  0999 V2000
  -19.6419   -4.6320  -32.2659 C   0  0  0  0  0  0  0  0  0  0  0  0
  -20.4390   -6.8803  -31.8829 C   0  0  0  0  0  0  0  0  0  0  0  0
  -19.0641   -5.0415  -33.4676 C   0  0  0  0  0  0  0  0  0  0  0  0
  -19.8612   -7.2898  -33.0846 C   0  0  0  0  0  0  0  0  0  0  0  0
  -16.6139   -5.3347  -26.3725 C   0  0  0  0  0  0  0  0  0  0  0  0
  -22.8253   -4.2484  -29.0210 C   0  0  0  0  0  0  0  0  0  0  0  0
  -20.7145   -4.3869  -25.4439 C   0  0  0  0  0  0  0  0  0  0  0  0
  -17.2149   -6.5908  -26.1652 C   0  0  0  0  0  0  0  0  0  0  0  0
  -20.8020   -4.7628  -27.8305 C   0  0  0  0  0  0  0  0  0  0  0  0
  -20.3293   -5.5514  -31.4735 C   0  0  0  0  0  0  0  0  0  0  0  0
  -20.9284   -5.1266  -30.2270 C   0  0  0  0  0  0  0  0  0  0  0  0
  -19.1738   -6.3704  -33.8769 C   0  0  0  0  0  0  0  0  0  0  0  0
  -22.2374   -4.6611  -30.2193 C   0  0  0  0  0  0  0  0  0  0  0  0
  -20.2105   -5.1780  -29.0357 C   0  0  0  0  0  0  0  0  0  0  0  0
  -22.1307   -4.2892  -27.8152 C   0  0  0  0  0  0  0  0  0  0  0  0
  -20.1022   -4.8039  -26.6170 C   0  0  0  0  0  0  0  0  0  0  0  0
  -22.0174   -3.9395  -25.5283 C   0  0  0  0  0  0  0  0  0  0  0  0
  -17.6686   -4.4786  -26.5752 C   0  0  0  0  0  0  0  0  0  0  0  0
  -22.7174   -3.4900  -24.3372 C   0  0  0  0  0  0  0  0  0  0  0  0
  -19.3826   -6.0780  -38.0783 C   0  0  0  0  0  0  0  0  0  0  0  0
  -18.9209   -8.2071  -37.1395 C   0  0  0  0  0  0  0  0  0  0  0  0
  -21.4486   -6.9973  -37.5036 C   0  0  0  0  0  0  0  0  0  0  0  0
  -20.2497   -6.2980  -36.8555 C   0  0  1  0  0  0  0  0  0  0  0  0
  -19.4243   -7.5493  -38.4265 C   0  0  1  0  0  0  0  0  0  0  0  0
  -23.0532   -4.5839  -31.4707 C   0  0  0  0  0  0  0  0  0  0  0  0
  -18.8007   -5.6924  -29.1218 C   0  0  0  0  0  0  0  0  0  0  0  0
  -17.6888   -3.0274  -26.8445 C   0  0  0  0  0  0  0  0  0  0  0  0
  -27.2498   -5.6498  -22.1179 C   0  0  0  0  0  0  0  0  0  0  0  0
  -18.5517   -6.8113  -35.1703 C   0  0  0  0  0  0  0  0  0  0  0  0
  -24.8551   -2.5523  -23.4195 C   0  0  0  0  0  0  0  0  0  0  0  0
  -26.1118   -3.3789  -23.2251 C   0  0  0  0  0  0  0  0  0  0  0  0
  -18.5481   -6.5414  -26.2302 N   0  0  0  0  0  0  0  0  0  0  0  0
  -22.7275   -3.8838  -26.6783 N   0  0  0  0  0  0  0  0  0  0  0  0
  -24.6526   -5.1020  -21.8081 N   0  0  0  0  0  0  0  0  0  0  0  0
  -18.7935   -5.2440  -26.4804 N   0  0  0  0  0  0  0  0  0  0  0  0
  -19.5406   -7.3544  -36.0944 N   0  0  2  0  0  0  0  0  0  0  0  0
  -24.0368   -3.0503  -24.5018 N   0  0  0  0  0  0  0  0  0  0  0  0
  -22.1458   -3.4837  -23.2317 O   0  0  0  0  0  0  0  0  0  0  0  0
  -25.6692   -5.7518  -24.1820 O   0  0  0  0  0  0  0  0  0  0  0  0
  -20.8413   -7.8311  -38.5224 O   0  0  0  0  0  0  0  0  0  0  0  0
  -25.7545   -5.0763  -22.8954 S   0  0  1  0  0  0  0  0  0  0  0  0
  -19.5472   -3.5927  -31.9601 H   0  0  0  0  0  0  0  0  0  0  0  0
  -20.9722   -7.6087  -31.2765 H   0  0  0  0  0  0  0  0  0  0  0  0
  -18.5294   -4.3186  -34.0780 H   0  0  0  0  0  0  0  0  0  0  0  0
  -19.9520   -8.3272  -33.3962 H   0  0  0  0  0  0  0  0  0  0  0  0
  -15.5625   -5.0869  -26.3738 H   0  0  0  0  0  0  0  0  0  0  0  0
  -23.8526   -3.8857  -29.0298 H   0  0  0  0  0  0  0  0  0  0  0  0
  -20.1948   -4.4085  -24.4900 H   0  0  0  0  0  0  0  0  0  0  0  0
  -16.7369   -7.5398  -25.9694 H   0  0  0  0  0  0  0  0  0  0  0  0
  -19.8714   -5.4468  -38.8282 H   0  0  0  0  0  0  0  0  0  0  0  0
  -18.3779   -5.6997  -37.8691 H   0  0  0  0  0  0  0  0  0  0  0  0
  -19.2766   -9.2370  -37.0370 H   0  0  0  0  0  0  0  0  0  0  0  0
  -17.8256   -8.1900  -37.1001 H   0  0  0  0  0  0  0  0  0  0  0  0
  -22.0304   -7.6187  -36.8152 H   0  0  0  0  0  0  0  0  0  0  0  0
  -22.1171   -6.2881  -38.0027 H   0  0  0  0  0  0  0  0  0  0  0  0
  -20.5231   -5.4177  -36.2692 H   0  0  0  0  0  0  0  0  0  0  0  0
  -18.9002   -7.8507  -39.3353 H   0  0  0  0  0  0  0  0  0  0  0  0
  -22.9190   -3.6078  -31.9492 H   0  0  0  0  0  0  0  0  0  0  0  0
  -22.7611   -5.3665  -32.1804 H   0  0  0  0  0  0  0  0  0  0  0  0
  -24.1187   -4.7267  -31.2559 H   0  0  0  0  0  0  0  0  0  0  0  0
  -18.7927   -6.7760  -28.9798 H   0  0  0  0  0  0  0  0  0  0  0  0
  -18.3616   -5.4562  -30.0950 H   0  0  0  0  0  0  0  0  0  0  0  0
  -18.1719   -5.2270  -28.3575 H   0  0  0  0  0  0  0  0  0  0  0  0
  -17.6517   -2.8238  -27.9272 H   0  0  0  0  0  0  0  0  0  0  0  0
  -18.5964   -2.5448  -26.4436 H   0  0  0  0  0  0  0  0  0  0  0  0
  -16.8353   -2.5078  -26.3762 H   0  0  0  0  0  0  0  0  0  0  0  0
  -27.1269   -6.7057  -21.8718 H   0  0  0  0  0  0  0  0  0  0  0  0
  -27.4143   -5.0629  -21.2130 H   0  0  0  0  0  0  0  0  0  0  0  0
  -28.0757   -5.5138  -22.8177 H   0  0  0  0  0  0  0  0  0  0  0  0
  -18.0533   -5.9707  -35.6654 H   0  0  0  0  0  0  0  0  0  0  0  0
  -17.7941   -7.5833  -34.9989 H   0  0  0  0  0  0  0  0  0  0  0  0
  -25.0919   -1.5065  -23.6387 H   0  0  0  0  0  0  0  0  0  0  0  0
  -24.2399   -2.5845  -22.5151 H   0  0  0  0  0  0  0  0  0  0  0  0
  -26.7207   -3.3655  -24.1340 H   0  0  0  0  0  0  0  0  0  0  0  0
  -26.7155   -3.0105  -22.3902 H   0  0  0  0  0  0  0  0  0  0  0  0
  -23.7320   -4.7909  -22.1314 H   0  0  0  0  0  0  0  0  0  0  0  0
  -24.4348   -3.0164  -25.4346 H   0  0  0  0  0  0  0  0  0  0  0  0
  1  3  1  0  0  0  0
  1 10  2  0  0  0  0
  2  4  2  0  0  0  0
  2 10  1  0  0  0  0
  3 12  2  0  0  0  0
  4 12  1  0  0  0  0
  5  8  1  0  0  0  0
  5 18  2  0  0  0  0
  6 13  2  0  0  0  0
  6 15  1  0  0  0  0
  7 16  1  0  0  0  0
  7 17  2  0  0  0  0
  8 32  2  0  0  0  0
  9 14  1  0  0  0  0
  9 15  1  0  0  0  0
  9 16  2  0  0  0  0
 10 11  1  0  0  0  0
 11 13  1  0  0  0  0
 11 14  2  0  0  0  0
 12 29  1  0  0  0  0
 13 25  1  0  0  0  0
 14 26  1  0  0  0  0
 15 33  2  0  0  0  0
 16 35  1  0  0  0  0
 17 19  1  0  0  0  0
 17 33  1  0  0  0  0
 18 27  1  0  0  0  0
 18 35  1  0  0  0  0
 19 37  1  0  0  0  0
 19 38  2  0  0  0  0
 20 23  1  0  0  0  0
 20 24  1  0  0  0  0
 21 24  1  0  0  0  0
 21 36  1  0  0  0  0
 22 23  1  0  0  0  0
 22 40  1  0  0  0  0
 23 36  1  0  0  0  0
 24 40  1  0  0  0  0
 28 41  1  0  0  0  0
 29 36  1  0  0  0  0
 30 31  1  0  0  0  0
 30 37  1  0  0  0  0
 31 41  1  0  0  0  0
 32 35  1  0  0  0  0
 34 41  2  0  0  0  0
 39 41  2  0  0  0  0
  1 42  1  0  0  0  0
  2 43  1  0  0  0  0
  3 44  1  0  0  0  0
  4 45  1  0  0  0  0
  5 46  1  0  0  0  0
  6 47  1  0  0  0  0
  7 48  1  0  0  0  0
  8 49  1  0  0  0  0
 20 50  1  0  0  0  0
 20 51  1  0  0  0  0
 21 52  1  0  0  0  0
 21 53  1  0  0  0  0
 22 54  1  0  0  0  0
 22 55  1  0  0  0  0
 23 56  1  0  0  0  0
 24 57  1  0  0  0  0
 25 58  1  0  0  0  0
 25 59  1  0  0  0  0
 25 60  1  0  0  0  0
 26 61  1  0  0  0  0
 26 62  1  0  0  0  0
 26 63  1  0  0  0  0
 27 64  1  0  0  0  0
 27 65  1  0  0  0  0
 27 66  1  0  0  0  0
 28 67  1  0  0  0  0
 28 68  1  0  0  0  0
 28 69  1  0  0  0  0
 29 70  1  0  0  0  0
 29 71  1  0  0  0  0
 30 72  1  0  0  0  0
 30 73  1  0  0  0  0
 31 74  1  0  0  0  0
 31 75  1  0  0  0  0
 34 76  1  0  0  0  0
 37 77  1  0  0  0  0
M  END
> <SMILES>
Cc1cc2nc(cc(c2c(c1-c1ccc(cc1)CN1C[C@@H]2C[C@H]1CO2)C)-n1nccc1C)C(=O)NCCS(=N)(=O)C

> <FORMATTED_ID>
H3D-008220

> <MOLFORMULA>
C31H36N6O3S

> <Exact Mass>
572.26

> <XLogP>
3.81

> <TPSA_NOPS>
121.6

> <s_m_source_file>
ligprep_h3d.sdf

> <i_m_source_file_index>
1185

> <i_lp_mmshare_version>
55123

> <i_f3d_flags>
0

> <s_epik_input>
TzFbQ0gyXVtDSF0oW0NIMl0yKU4oW0NIMl1bQ0hdMTIpW0NIMl1jKFtjSF1bY0hdMylbY0hdW2NIXWMzLWMoYyhbQ0gzXSlbY0hdNCljKFtDSDNdKWMoYzQ1KWMoLW42bltjSF1bY0hdYzZbQ0gzXSlbY0hdYyhuNSlDKD1PKVtOSF1bQ0gyXVtDSDJdW1NAQF0oPU8pKD1bTkhdKVtDSDNd

> <s_epik_cmdline>
J2VwaWtfcHl0aG9uJywgJy1waHQnLCAnMC41JywgJy1waCcsICc3LjUnLCAnLXRuJywgJzgnLCAnLW1hJywgJzUwMCcsICctaW1hZScsICc8aW5maWxlLm1hZT4nLCAnLW9tYWUnLCAnPG91dGZpbGUubWFlPic=

> <r_lp_tautomer_probability>
1

> <r_epik_Ionization_Penalty>
0.105565

> <r_epik_Ionization_Penalty_Charging>
0

> <r_epik_Ionization_Penalty_Neutral>
0.105565

> <r_epik_State_Penalty>
0.095414

> <r_epik_Charging_Adjusted_Penalty>
0.095414

> <i_epik_Tot_Q>
0

> <i_epik_Tot_abs_Q>
0

> <s_lp_Force_Field>
S-OPLS

> <r_lp_Energy>
61.9136

> <b_lp_Chiralities_Consistent>
1

> <s_lp_Variant>
ligprep_h3d.sdf:1185-1

> <ROCS_ShapeQuery>
_7L13

> <ROCS_TanimotoCombo>
0.646 

> <ROCS_ShapeTanimoto>
0.567 

> <ROCS_ColorTanimoto>
0.078 

> <ROCS_RefTversky>
0.769 

> <ROCS_RefColorTversky>
0.204 

> <ROCS_RefTverskyCombo>
0.973 

> <ROCS_FitTversky>
0.684 

> <ROCS_FitColorTversky>
0.113 

> <ROCS_FitTverskyCombo>
0.797 

> <ROCS_ColorScore>
-1.921

> <ROCS_Overlap>
1285.765

> <ROCS_Rank>
544                 

$$$$
ligprep_h3d.sdf:882_1629
  -OEChem-08212117123D

 62 66  0     0  0  0  0  0  0999 V2000
  -19.7862   -3.8903  -32.3421 C   0  0  0  0  0  0  0  0  0  0  0  0
  -20.0848   -6.2773  -32.1178 C   0  0  0  0  0  0  0  0  0  0  0  0
  -19.1978   -4.0813  -33.5922 C   0  0  0  0  0  0  0  0  0  0  0  0
  -19.4965   -6.4683  -33.3681 C   0  0  0  0  0  0  0  0  0  0  0  0
  -16.5409   -5.5935  -26.5111 C   0  0  0  0  0  0  0  0  0  0  0  0
  -22.8162   -4.4163  -28.9643 C   0  0  0  0  0  0  0  0  0  0  0  0
  -20.5448   -4.3731  -25.4845 C   0  0  0  0  0  0  0  0  0  0  0  0
  -16.5153   -4.1926  -26.6468 C   0  0  0  0  0  0  0  0  0  0  0  0
  -20.3725   -5.7373  -37.0740 C   0  0  0  0  0  0  0  0  0  0  0  0
  -20.6732   -4.5833  -27.8895 C   0  0  0  0  0  0  0  0  0  0  0  0
  -20.2297   -4.9883  -31.6048 C   0  0  0  0  0  0  0  0  0  0  0  0
  -20.8426   -4.7892  -30.3021 C   0  0  0  0  0  0  0  0  0  0  0  0
  -19.0530   -5.3703  -34.1053 C   0  0  0  0  0  0  0  0  0  0  0  0
  -22.2172   -4.6086  -30.2117 C   0  0  0  0  0  0  0  0  0  0  0  0
  -20.0704   -4.7768  -29.1441 C   0  0  0  0  0  0  0  0  0  0  0  0
  -22.0683   -4.3996  -27.7902 C   0  0  0  0  0  0  0  0  0  0  0  0
  -19.9197   -4.5664  -26.7080 C   0  0  0  0  0  0  0  0  0  0  0  0
  -21.9143   -4.2022  -25.4875 C   0  0  0  0  0  0  0  0  0  0  0  0
  -17.8763   -5.9148  -26.5180 C   0  0  0  0  0  0  0  0  0  0  0  0
  -22.6309   -3.9969  -24.2405 C   0  0  0  0  0  0  0  0  0  0  0  0
  -23.0933   -4.6118  -31.4241 C   0  0  0  0  0  0  0  0  0  0  0  0
  -18.5912   -4.9784  -29.3200 C   0  0  0  0  0  0  0  0  0  0  0  0
  -18.5490   -7.2243  -26.4099 C   0  0  0  0  0  0  0  0  0  0  0  0
  -18.4237   -5.5746  -35.4418 C   0  0  0  0  0  0  0  0  0  0  0  0
  -24.8012   -4.3068  -23.0220 C   0  0  0  0  0  0  0  0  0  0  0  0
  -26.1618   -4.9174  -23.3044 C   0  0  0  0  0  0  0  0  0  0  0  0
  -17.7373   -3.6605  -26.7337 N   0  0  0  0  0  0  0  0  0  0  0  0
  -20.9112   -6.6975  -37.7897 N   0  0  0  0  0  0  0  0  0  0  0  0
  -22.6776   -4.2118  -26.6042 N   0  0  0  0  0  0  0  0  0  0  0  0
  -20.1723   -7.8257  -37.5136 N   0  0  0  0  0  0  0  0  0  0  0  0
  -19.2017   -7.5602  -36.6478 N   0  0  0  0  0  0  0  0  0  0  0  0
  -19.3290   -6.2542  -36.3744 N   0  0  0  0  0  0  0  0  0  0  0  0
  -18.5434   -4.7328  -26.6525 N   0  0  0  0  0  0  0  0  0  0  0  0
  -23.9521   -4.4574  -24.1819 N   0  0  0  0  0  0  0  0  0  0  0  0
  -22.0844   -3.4165  -23.2847 O   0  0  0  0  0  0  0  0  0  0  0  0
  -26.9817   -4.7987  -22.1488 O   0  0  0  0  0  0  0  0  0  0  0  0
  -19.8914   -2.8793  -31.9555 H   0  0  0  0  0  0  0  0  0  0  0  0
  -20.4261   -7.1432  -31.5555 H   0  0  0  0  0  0  0  0  0  0  0  0
  -18.8542   -3.2202  -34.1592 H   0  0  0  0  0  0  0  0  0  0  0  0
  -19.3882   -7.4761  -33.7604 H   0  0  0  0  0  0  0  0  0  0  0  0
  -15.7064   -6.2735  -26.4214 H   0  0  0  0  0  0  0  0  0  0  0  0
  -23.8952   -4.2761  -28.9083 H   0  0  0  0  0  0  0  0  0  0  0  0
  -19.9844   -4.3557  -24.5537 H   0  0  0  0  0  0  0  0  0  0  0  0
  -15.6570   -3.5373  -26.6861 H   0  0  0  0  0  0  0  0  0  0  0  0
  -20.6834   -4.7040  -37.0286 H   0  0  0  0  0  0  0  0  0  0  0  0
  -23.1864   -3.5968  -31.8252 H   0  0  0  0  0  0  0  0  0  0  0  0
  -22.6829   -5.2622  -32.2051 H   0  0  0  0  0  0  0  0  0  0  0  0
  -24.0946   -4.9888  -31.1855 H   0  0  0  0  0  0  0  0  0  0  0  0
  -18.3540   -6.0439  -29.2677 H   0  0  0  0  0  0  0  0  0  0  0  0
  -18.2594   -4.5852  -30.2849 H   0  0  0  0  0  0  0  0  0  0  0  0
  -18.0337   -4.4493  -28.5419 H   0  0  0  0  0  0  0  0  0  0  0  0
  -18.7593   -7.4772  -25.3578 H   0  0  0  0  0  0  0  0  0  0  0  0
  -19.5069   -7.2437  -26.9572 H   0  0  0  0  0  0  0  0  0  0  0  0
  -17.9386   -8.0393  -26.8351 H   0  0  0  0  0  0  0  0  0  0  0  0
  -18.1244   -4.6202  -35.9037 H   0  0  0  0  0  0  0  0  0  0  0  0
  -17.5033   -6.1762  -35.3736 H   0  0  0  0  0  0  0  0  0  0  0  0
  -24.8848   -3.2394  -22.7944 H   0  0  0  0  0  0  0  0  0  0  0  0
  -24.3224   -4.8162  -22.1803 H   0  0  0  0  0  0  0  0  0  0  0  0
  -26.0543   -5.9819  -23.5345 H   0  0  0  0  0  0  0  0  0  0  0  0
  -26.6603   -4.4195  -24.1425 H   0  0  0  0  0  0  0  0  0  0  0  0
  -24.3709   -4.8673  -25.0103 H   0  0  0  0  0  0  0  0  0  0  0  0
  -27.8375   -5.1991  -22.3710 H   0  0  0  0  0  0  0  0  0  0  0  0
  1  3  1  0  0  0  0
  1 11  2  0  0  0  0
  2  4  2  0  0  0  0
  2 11  1  0  0  0  0
  3 13  2  0  0  0  0
  4 13  1  0  0  0  0
  5  8  1  0  0  0  0
  5 19  2  0  0  0  0
  6 14  2  0  0  0  0
  6 16  1  0  0  0  0
  7 17  1  0  0  0  0
  7 18  2  0  0  0  0
  8 27  2  0  0  0  0
  9 28  2  0  0  0  0
  9 32  1  0  0  0  0
 10 15  1  0  0  0  0
 10 16  1  0  0  0  0
 10 17  2  0  0  0  0
 11 12  1  0  0  0  0
 12 14  1  0  0  0  0
 12 15  2  0  0  0  0
 13 24  1  0  0  0  0
 14 21  1  0  0  0  0
 15 22  1  0  0  0  0
 16 29  2  0  0  0  0
 17 33  1  0  0  0  0
 18 20  1  0  0  0  0
 18 29  1  0  0  0  0
 19 23  1  0  0  0  0
 19 33  1  0  0  0  0
 20 34  1  0  0  0  0
 20 35  2  0  0  0  0
 24 32  1  0  0  0  0
 25 26  1  0  0  0  0
 25 34  1  0  0  0  0
 26 36  1  0  0  0  0
 27 33  1  0  0  0  0
 28 30  1  0  0  0  0
 30 31  2  0  0  0  0
 31 32  1  0  0  0  0
  1 37  1  0  0  0  0
  2 38  1  0  0  0  0
  3 39  1  0  0  0  0
  4 40  1  0  0  0  0
  5 41  1  0  0  0  0
  6 42  1  0  0  0  0
  7 43  1  0  0  0  0
  8 44  1  0  0  0  0
  9 45  1  0  0  0  0
 21 46  1  0  0  0  0
 21 47  1  0  0  0  0
 21 48  1  0  0  0  0
 22 49  1  0  0  0  0
 22 50  1  0  0  0  0
 22 51  1  0  0  0  0
 23 52  1  0  0  0  0
 23 53  1  0  0  0  0
 23 54  1  0  0  0  0
 24 55  1  0  0  0  0
 24 56  1  0  0  0  0
 25 57  1  0  0  0  0
 25 58  1  0  0  0  0
 26 59  1  0  0  0  0
 26 60  1  0  0  0  0
 34 61  1  0  0  0  0
 36 62  1  0  0  0  0
M  END
> <SMILES>
Cc1cc2nc(cc(c2c(c1-c1ccc(cc1)Cn1cnnn1)C)-n1nccc1C)C(=O)NCCO

> <FORMATTED_ID>
H3D-005769

> <MOLFORMULA>
C26H26N8O2

> <Exact Mass>
482.22

> <XLogP>
2.51

> <TPSA_NOPS>
123.6

> <s_m_source_file>
ligprep_h3d.sdf

> <i_m_source_file_index>
882

> <i_lp_mmshare_version>
55123

> <i_f3d_flags>
0

> <s_epik_input>
W09IXVtDSDJdW0NIMl1bTkhdQyg9TyljKG4xKVtjSF1jKC1uMm5bY0hdW2NIXWMyW0NIM10pYyhjMTMpYyhbQ0gzXSljKGMoW0NIM10pW2NIXTMpLWM0W2NIXVtjSF1jKFtjSF1bY0hdNClbQ0gyXW41W2NIXW5ubjU=

> <s_epik_cmdline>
J2VwaWtfcHl0aG9uJywgJy1waHQnLCAnMC41JywgJy1waCcsICc3LjUnLCAnLXRuJywgJzgnLCAnLW1hJywgJzUwMCcsICctaW1hZScsICc8aW5maWxlLm1hZT4nLCAnLW9tYWUnLCAnPG91dGZpbGUubWFlPic=

> <r_lp_tautomer_probability>
1

> <r_epik_Ionization_Penalty>
1.87103e-05

> <r_epik_Ionization_Penalty_Charging>
0

> <r_epik_Ionization_Penalty_Neutral>
1.87103e-05

> <r_epik_State_Penalty>
-0

> <r_epik_Charging_Adjusted_Penalty>
0

> <i_epik_Tot_Q>
0

> <i_epik_Tot_abs_Q>
0

> <s_lp_Force_Field>
S-OPLS

> <r_lp_Energy>
51.1941

> <b_lp_Chiralities_Consistent>
1

> <s_lp_Variant>
ligprep_h3d.sdf:882-1

> <ROCS_ShapeQuery>
_7L13

> <ROCS_TanimotoCombo>
0.756 

> <ROCS_ShapeTanimoto>
0.616 

> <ROCS_ColorTanimoto>
0.140 

> <ROCS_RefTversky>
0.769 

> <ROCS_RefColorTversky>
0.313 

> <ROCS_RefTverskyCombo>
1.081 

> <ROCS_FitTversky>
0.756 

> <ROCS_FitColorTversky>
0.202 

> <ROCS_FitTverskyCombo>
0.958 

> <ROCS_ColorScore>
-2.901

> <ROCS_Overlap>
1278.028

> <ROCS_Rank>
545                 

$$$$
ligprep_h3d.sdf:846_1578
  -OEChem-08212117123D

 63 67  0     0  0  0  0  0  0999 V2000
  -19.7884   -3.9204  -32.3444 C   0  0  0  0  0  0  0  0  0  0  0  0
  -20.0894   -6.3065  -32.1142 C   0  0  0  0  0  0  0  0  0  0  0  0
  -19.2006   -4.1151  -33.5942 C   0  0  0  0  0  0  0  0  0  0  0  0
  -19.5016   -6.5012  -33.3642 C   0  0  0  0  0  0  0  0  0  0  0  0
  -16.5432   -5.6128  -26.5102 C   0  0  0  0  0  0  0  0  0  0  0  0
  -22.8180   -4.4352  -28.9645 C   0  0  0  0  0  0  0  0  0  0  0  0
  -20.5455   -4.3858  -25.4854 C   0  0  0  0  0  0  0  0  0  0  0  0
  -16.5162   -4.2121  -26.6493 C   0  0  0  0  0  0  0  0  0  0  0  0
  -20.1980   -7.7946  -37.4958 C   0  0  0  0  0  0  0  0  0  0  0  0
  -20.3755   -5.7600  -37.0645 C   0  0  0  0  0  0  0  0  0  0  0  0
  -20.6748   -4.6017  -27.8899 C   0  0  0  0  0  0  0  0  0  0  0  0
  -20.2327   -5.0162  -31.6043 C   0  0  0  0  0  0  0  0  0  0  0  0
  -20.8451   -4.8133  -30.3019 C   0  0  0  0  0  0  0  0  0  0  0  0
  -19.0572   -5.4055  -34.1041 C   0  0  0  0  0  0  0  0  0  0  0  0
  -22.2195   -4.6311  -30.2115 C   0  0  0  0  0  0  0  0  0  0  0  0
  -20.0726   -4.7989  -29.1441 C   0  0  0  0  0  0  0  0  0  0  0  0
  -22.0697   -4.4163  -27.7906 C   0  0  0  0  0  0  0  0  0  0  0  0
  -19.9210   -4.5827  -26.7086 C   0  0  0  0  0  0  0  0  0  0  0  0
  -21.9149   -4.2135  -25.4884 C   0  0  0  0  0  0  0  0  0  0  0  0
  -17.8789   -5.9327  -26.5159 C   0  0  0  0  0  0  0  0  0  0  0  0
  -22.6309   -4.0045  -24.2417 C   0  0  0  0  0  0  0  0  0  0  0  0
  -23.0959   -4.6364  -31.4237 C   0  0  0  0  0  0  0  0  0  0  0  0
  -18.5937   -5.0023  -29.3200 C   0  0  0  0  0  0  0  0  0  0  0  0
  -18.5529   -7.2412  -26.4045 C   0  0  0  0  0  0  0  0  0  0  0  0
  -18.4285   -5.6137  -35.4404 C   0  0  0  0  0  0  0  0  0  0  0  0
  -24.8012   -4.3092  -23.0220 C   0  0  0  0  0  0  0  0  0  0  0  0
  -26.1625   -4.9191  -23.3025 C   0  0  0  0  0  0  0  0  0  0  0  0
  -17.7377   -3.6791  -26.7371 N   0  0  0  0  0  0  0  0  0  0  0  0
  -20.9469   -6.6917  -37.7916 N   0  0  0  0  0  0  0  0  0  0  0  0
  -19.1991   -7.6038  -36.6313 N   0  0  0  0  0  0  0  0  0  0  0  0
  -22.6785   -4.2250  -26.6050 N   0  0  0  0  0  0  0  0  0  0  0  0
  -19.3347   -6.2946  -36.3711 N   0  0  0  0  0  0  0  0  0  0  0  0
  -18.5448   -4.7504  -26.6531 N   0  0  0  0  0  0  0  0  0  0  0  0
  -23.9526   -4.4635  -24.1816 N   0  0  0  0  0  0  0  0  0  0  0  0
  -22.0836   -3.4223  -23.2875 O   0  0  0  0  0  0  0  0  0  0  0  0
  -26.9819   -4.7968  -22.1469 O   0  0  0  0  0  0  0  0  0  0  0  0
  -19.8925   -2.9084  -31.9603 H   0  0  0  0  0  0  0  0  0  0  0  0
  -20.4313   -7.1708  -31.5497 H   0  0  0  0  0  0  0  0  0  0  0  0
  -18.8562   -3.2557  -34.1634 H   0  0  0  0  0  0  0  0  0  0  0  0
  -19.3943   -7.5101  -33.7540 H   0  0  0  0  0  0  0  0  0  0  0  0
  -15.7093   -6.2934  -26.4190 H   0  0  0  0  0  0  0  0  0  0  0  0
  -23.8968   -4.2937  -28.9086 H   0  0  0  0  0  0  0  0  0  0  0  0
  -19.9849   -4.3667  -24.5549 H   0  0  0  0  0  0  0  0  0  0  0  0
  -15.6573   -3.5578  -26.6904 H   0  0  0  0  0  0  0  0  0  0  0  0
  -20.3847   -8.7676  -37.9249 H   0  0  0  0  0  0  0  0  0  0  0  0
  -20.6625   -4.7196  -37.0067 H   0  0  0  0  0  0  0  0  0  0  0  0
  -23.1881   -3.6223  -31.8273 H   0  0  0  0  0  0  0  0  0  0  0  0
  -22.6864   -5.2891  -32.2033 H   0  0  0  0  0  0  0  0  0  0  0  0
  -24.0976   -5.0118  -31.1840 H   0  0  0  0  0  0  0  0  0  0  0  0
  -18.3575   -6.0680  -29.2652 H   0  0  0  0  0  0  0  0  0  0  0  0
  -18.2617   -4.6119  -30.2859 H   0  0  0  0  0  0  0  0  0  0  0  0
  -18.0354   -4.4720  -28.5434 H   0  0  0  0  0  0  0  0  0  0  0  0
  -18.7631   -7.4913  -25.3517 H   0  0  0  0  0  0  0  0  0  0  0  0
  -19.5110   -7.2610  -26.9514 H   0  0  0  0  0  0  0  0  0  0  0  0
  -17.9435   -8.0579  -26.8278 H   0  0  0  0  0  0  0  0  0  0  0  0
  -18.1283   -4.6607  -35.9046 H   0  0  0  0  0  0  0  0  0  0  0  0
  -17.5086   -6.2160  -35.3709 H   0  0  0  0  0  0  0  0  0  0  0  0
  -24.8836   -3.2412  -22.7969 H   0  0  0  0  0  0  0  0  0  0  0  0
  -24.3227   -4.8171  -22.1791 H   0  0  0  0  0  0  0  0  0  0  0  0
  -26.0562   -5.9843  -23.5300 H   0  0  0  0  0  0  0  0  0  0  0  0
  -26.6607   -4.4228  -24.1416 H   0  0  0  0  0  0  0  0  0  0  0  0
  -24.3720   -4.8750  -25.0090 H   0  0  0  0  0  0  0  0  0  0  0  0
  -27.8383   -5.1969  -22.3679 H   0  0  0  0  0  0  0  0  0  0  0  0
  1  3  1  0  0  0  0
  1 12  2  0  0  0  0
  2  4  2  0  0  0  0
  2 12  1  0  0  0  0
  3 14  2  0  0  0  0
  4 14  1  0  0  0  0
  5  8  1  0  0  0  0
  5 20  2  0  0  0  0
  6 15  2  0  0  0  0
  6 17  1  0  0  0  0
  7 18  1  0  0  0  0
  7 19  2  0  0  0  0
  8 28  2  0  0  0  0
  9 29  1  0  0  0  0
  9 30  2  0  0  0  0
 10 29  2  0  0  0  0
 10 32  1  0  0  0  0
 11 16  1  0  0  0  0
 11 17  1  0  0  0  0
 11 18  2  0  0  0  0
 12 13  1  0  0  0  0
 13 15  1  0  0  0  0
 13 16  2  0  0  0  0
 14 25  1  0  0  0  0
 15 22  1  0  0  0  0
 16 23  1  0  0  0  0
 17 31  2  0  0  0  0
 18 33  1  0  0  0  0
 19 21  1  0  0  0  0
 19 31  1  0  0  0  0
 20 24  1  0  0  0  0
 20 33  1  0  0  0  0
 21 34  1  0  0  0  0
 21 35  2  0  0  0  0
 25 32  1  0  0  0  0
 26 27  1  0  0  0  0
 26 34  1  0  0  0  0
 27 36  1  0  0  0  0
 28 33  1  0  0  0  0
 30 32  1  0  0  0  0
  1 37  1  0  0  0  0
  2 38  1  0  0  0  0
  3 39  1  0  0  0  0
  4 40  1  0  0  0  0
  5 41  1  0  0  0  0
  6 42  1  0  0  0  0
  7 43  1  0  0  0  0
  8 44  1  0  0  0  0
  9 45  1  0  0  0  0
 10 46  1  0  0  0  0
 22 47  1  0  0  0  0
 22 48  1  0  0  0  0
 22 49  1  0  0  0  0
 23 50  1  0  0  0  0
 23 51  1  0  0  0  0
 23 52  1  0  0  0  0
 24 53  1  0  0  0  0
 24 54  1  0  0  0  0
 24 55  1  0  0  0  0
 25 56  1  0  0  0  0
 25 57  1  0  0  0  0
 26 58  1  0  0  0  0
 26 59  1  0  0  0  0
 27 60  1  0  0  0  0
 27 61  1  0  0  0  0
 34 62  1  0  0  0  0
 36 63  1  0  0  0  0
M  END
> <SMILES>
Cc1cc2nc(cc(c2c(c1-c1ccc(cc1)Cn1cncn1)C)-n1nccc1C)C(=O)NCCO

> <FORMATTED_ID>
H3D-005652

> <MOLFORMULA>
C27H27N7O2

> <Exact Mass>
481.22

> <XLogP>
3.98

> <TPSA_NOPS>
110.8

> <s_m_source_file>
ligprep_h3d.sdf

> <i_m_source_file_index>
846

> <i_lp_mmshare_version>
55123

> <i_f3d_flags>
0

> <s_epik_input>
W09IXVtDSDJdW0NIMl1bTkhdQyg9TyljKG4xKVtjSF1jKC1uMm5bY0hdW2NIXWMyW0NIM10pYyhjMTMpYyhbQ0gzXSljKGMoW0NIM10pW2NIXTMpLWM0W2NIXVtjSF1jKFtjSF1bY0hdNClbQ0gyXW41W2NIXW5bY0hdbjU=

> <s_epik_cmdline>
J2VwaWtfcHl0aG9uJywgJy1waHQnLCAnMC41JywgJy1waCcsICc3LjUnLCAnLXRuJywgJzgnLCAnLW1hJywgJzUwMCcsICctaW1hZScsICc8aW5maWxlLm1hZT4nLCAnLW9tYWUnLCAnPG91dGZpbGUubWFlPic=

> <r_lp_tautomer_probability>
1

> <r_epik_Ionization_Penalty>
2.31022e-05

> <r_epik_Ionization_Penalty_Charging>
0

> <r_epik_Ionization_Penalty_Neutral>
2.31022e-05

> <r_epik_State_Penalty>
-0

> <r_epik_Charging_Adjusted_Penalty>
0

> <i_epik_Tot_Q>
0

> <i_epik_Tot_abs_Q>
0

> <s_lp_Force_Field>
S-OPLS

> <r_lp_Energy>
52.0231

> <b_lp_Chiralities_Consistent>
1

> <s_lp_Variant>
ligprep_h3d.sdf:846-1

> <ROCS_ShapeQuery>
_7L13

> <ROCS_TanimotoCombo>
0.768 

> <ROCS_ShapeTanimoto>
0.616 

> <ROCS_ColorTanimoto>
0.152 

> <ROCS_RefTversky>
0.769 

> <ROCS_RefColorTversky>
0.315 

> <ROCS_RefTverskyCombo>
1.084 

> <ROCS_FitTversky>
0.756 

> <ROCS_FitColorTversky>
0.226 

> <ROCS_FitTverskyCombo>
0.983 

> <ROCS_ColorScore>
-2.901

> <ROCS_Overlap>
1277.899

> <ROCS_Rank>
546                 

$$$$
ligprep_h3d.sdf:3193_1986
  -OEChem-08212117123D

 57 61  0     0  0  0  0  0  0999 V2000
  -23.7778   -2.9969  -30.9341 C   0  0  0  0  0  0  0  0  0  0  0  0
  -23.3027   -4.2569  -23.3448 C   0  0  0  0  0  0  0  0  0  0  0  0
  -23.9233   -5.1087  -25.5189 C   0  0  0  0  0  0  0  0  0  0  0  0
  -23.1086   -3.2416  -29.7350 C   0  0  0  0  0  0  0  0  0  0  0  0
  -23.2451   -3.4598  -32.1373 C   0  0  0  0  0  0  0  0  0  0  0  0
  -24.6469   -4.2247  -22.9737 C   0  0  0  0  0  0  0  0  0  0  0  0
  -25.2675   -5.0766  -25.1477 C   0  0  0  0  0  0  0  0  0  0  0  0
  -21.3737   -4.4120  -30.9422 C   0  0  0  0  0  0  0  0  0  0  0  0
  -20.4208   -4.9232  -24.2425 C   0  0  0  0  0  0  0  0  0  0  0  0
  -22.9409   -4.6988  -24.6175 C   0  0  0  0  0  0  0  0  0  0  0  0
  -21.9065   -3.9491  -29.7391 C   0  0  0  0  0  0  0  0  0  0  0  0
  -22.0430   -4.1673  -32.1413 C   0  0  0  0  0  0  0  0  0  0  0  0
  -25.6293   -4.6346  -23.8751 C   0  0  0  0  0  0  0  0  0  0  0  0
  -21.5506   -4.7324  -25.0011 C   0  0  0  0  0  0  0  0  0  0  0  0
  -19.7206   -4.6622  -26.2442 C   0  0  0  0  0  0  0  0  0  0  0  0
  -19.0320   -4.5271  -27.4693 C   0  0  0  0  0  0  0  0  0  0  0  0
  -19.7192   -4.3038  -28.5960 C   0  0  0  0  0  0  0  0  0  0  0  0
  -21.2095   -4.2040  -28.4883 C   0  0  0  0  0  0  0  0  0  0  0  0
  -21.4763   -4.6598  -33.4233 C   0  0  0  0  0  0  0  0  0  0  0  0
  -17.9773   -6.8651  -35.6634 C   0  0  0  0  0  0  0  0  0  0  0  0
  -18.7266   -8.1775  -35.4171 C   0  0  0  0  0  0  0  0  0  0  0  0
  -18.6112   -5.8363  -34.7309 C   0  0  0  0  0  0  0  0  0  0  0  0
  -19.7742   -7.8711  -34.3499 C   0  0  0  0  0  0  0  0  0  0  0  0
  -20.0187   -6.3750  -34.5050 C   0  0  0  0  0  0  0  0  0  0  0  0
  -27.8634   -2.9725  -23.8888 C   0  0  0  0  0  0  0  0  0  0  0  0
  -19.2906   -4.8792  -25.0178 N   0  0  0  0  0  0  0  0  0  0  0  0
  -21.8757   -4.3402  -27.3761 N   0  0  0  0  0  0  0  0  0  0  0  0
  -21.0981   -4.5643  -26.2832 N   0  0  0  0  0  0  0  0  0  0  0  0
  -20.6651   -5.7883  -33.3448 N   0  0  0  0  0  0  0  0  0  0  0  0
  -21.7258   -4.0533  -34.4618 O   0  0  0  0  0  0  0  0  0  0  0  0
  -28.0254   -5.5678  -24.2252 O   0  0  0  0  0  0  0  0  0  0  0  0
  -27.4024   -4.6623  -21.9585 O   0  0  0  0  0  0  0  0  0  0  0  0
  -27.3115   -4.5945  -23.4108 S   0  0  0  0  0  0  0  0  0  0  0  0
  -24.7139   -2.4456  -30.9309 H   0  0  0  0  0  0  0  0  0  0  0  0
  -22.5486   -3.9342  -22.6310 H   0  0  0  0  0  0  0  0  0  0  0  0
  -23.6572   -5.4559  -26.5145 H   0  0  0  0  0  0  0  0  0  0  0  0
  -23.5330   -2.8763  -28.8032 H   0  0  0  0  0  0  0  0  0  0  0  0
  -23.7752   -3.2634  -33.0658 H   0  0  0  0  0  0  0  0  0  0  0  0
  -24.9179   -3.8787  -21.9798 H   0  0  0  0  0  0  0  0  0  0  0  0
  -26.0248   -5.3981  -25.8578 H   0  0  0  0  0  0  0  0  0  0  0  0
  -20.4362   -4.9635  -30.9454 H   0  0  0  0  0  0  0  0  0  0  0  0
  -20.3589   -5.0910  -23.1765 H   0  0  0  0  0  0  0  0  0  0  0  0
  -17.9506   -4.6039  -27.4855 H   0  0  0  0  0  0  0  0  0  0  0  0
  -19.2347   -4.1920  -29.5578 H   0  0  0  0  0  0  0  0  0  0  0  0
  -16.9040   -6.9665  -35.4735 H   0  0  0  0  0  0  0  0  0  0  0  0
  -18.0992   -6.5587  -36.7088 H   0  0  0  0  0  0  0  0  0  0  0  0
  -19.2108   -8.5082  -36.3432 H   0  0  0  0  0  0  0  0  0  0  0  0
  -18.0522   -8.9776  -35.0955 H   0  0  0  0  0  0  0  0  0  0  0  0
  -18.0490   -5.8005  -33.7890 H   0  0  0  0  0  0  0  0  0  0  0  0
  -18.6096   -4.8321  -35.1657 H   0  0  0  0  0  0  0  0  0  0  0  0
  -20.6842   -8.4636  -34.4852 H   0  0  0  0  0  0  0  0  0  0  0  0
  -19.3625   -8.1011  -33.3590 H   0  0  0  0  0  0  0  0  0  0  0  0
  -20.6559   -6.1756  -35.3691 H   0  0  0  0  0  0  0  0  0  0  0  0
  -28.9179   -2.8761  -23.6257 H   0  0  0  0  0  0  0  0  0  0  0  0
  -27.2663   -2.2336  -23.3524 H   0  0  0  0  0  0  0  0  0  0  0  0
  -27.7267   -2.8660  -24.9660 H   0  0  0  0  0  0  0  0  0  0  0  0
  -20.4583   -6.1944  -32.4321 H   0  0  0  0  0  0  0  0  0  0  0  0
  1  4  1  0  0  0  0
  1  5  2  0  0  0  0
  2  6  1  0  0  0  0
  2 10  2  0  0  0  0
  3  7  2  0  0  0  0
  3 10  1  0  0  0  0
  4 11  2  0  0  0  0
  5 12  1  0  0  0  0
  6 13  2  0  0  0  0
  7 13  1  0  0  0  0
  8 11  1  0  0  0  0
  8 12  2  0  0  0  0
  9 14  2  0  0  0  0
  9 26  1  0  0  0  0
 10 14  1  0  0  0  0
 11 18  1  0  0  0  0
 12 19  1  0  0  0  0
 13 33  1  0  0  0  0
 14 28  1  0  0  0  0
 15 16  1  0  0  0  0
 15 26  2  0  0  0  0
 15 28  1  0  0  0  0
 16 17  2  0  0  0  0
 17 18  1  0  0  0  0
 18 27  2  0  0  0  0
 19 29  1  0  0  0  0
 19 30  2  0  0  0  0
 20 21  1  0  0  0  0
 20 22  1  0  0  0  0
 21 23  1  0  0  0  0
 22 24  1  0  0  0  0
 23 24  1  0  0  0  0
 24 29  1  0  0  0  0
 25 33  1  0  0  0  0
 27 28  1  0  0  0  0
 31 33  2  0  0  0  0
 32 33  2  0  0  0  0
  1 34  1  0  0  0  0
  2 35  1  0  0  0  0
  3 36  1  0  0  0  0
  4 37  1  0  0  0  0
  5 38  1  0  0  0  0
  6 39  1  0  0  0  0
  7 40  1  0  0  0  0
  8 41  1  0  0  0  0
  9 42  1  0  0  0  0
 16 43  1  0  0  0  0
 17 44  1  0  0  0  0
 20 45  1  0  0  0  0
 20 46  1  0  0  0  0
 21 47  1  0  0  0  0
 21 48  1  0  0  0  0
 22 49  1  0  0  0  0
 22 50  1  0  0  0  0
 23 51  1  0  0  0  0
 23 52  1  0  0  0  0
 24 53  1  0  0  0  0
 25 54  1  0  0  0  0
 25 55  1  0  0  0  0
 25 56  1  0  0  0  0
 29 57  1  0  0  0  0
M  END
> <SMILES>
CS(=O)(=O)c1ccc(cc1)-c1cnc2ccc(nn12)-c1cccc(c1)C(=O)NC1CCCC1

> <FORMATTED_ID>
H3D-000372

> <MOLFORMULA>
C25H24N4O3S

> <Exact Mass>
460.16

> <XLogP>
4.49

> <TPSA_NOPS>
101.8

> <s_m_source_file>
ligprep_h3d.sdf

> <i_m_source_file_index>
3193

> <i_lp_mmshare_version>
55123

> <i_f3d_flags>
0

> <s_epik_input>
W0NIM11TKD1PKSg9TyljMVtjSF1bY0hdYyhbY0hdW2NIXTEpLWMoW2NIXW4yKW4oYzIzKW5jKFtjSF1bY0hdMyktYzRbY0hdW2NIXVtjSF1jKFtjSF00KUMoPU8pW05IXVtDSF01W0NIMl1bQ0gyXVtDSDJdW0NIMl01

> <s_epik_cmdline>
J2VwaWtfcHl0aG9uJywgJy1waHQnLCAnMC41JywgJy1waCcsICc3LjUnLCAnLXRuJywgJzgnLCAnLW1hJywgJzUwMCcsICctaW1hZScsICc8aW5maWxlLm1hZT4nLCAnLW9tYWUnLCAnPG91dGZpbGUubWFlPic=

> <r_lp_tautomer_probability>
1

> <r_epik_Ionization_Penalty>
0.000169045

> <r_epik_Ionization_Penalty_Charging>
0

> <r_epik_Ionization_Penalty_Neutral>
0.000169045

> <r_epik_State_Penalty>
-0

> <r_epik_Charging_Adjusted_Penalty>
0

> <i_epik_Tot_Q>
0

> <i_epik_Tot_abs_Q>
0

> <s_lp_Force_Field>
S-OPLS

> <r_lp_Energy>
45.6238

> <b_lp_Chiralities_Consistent>
1

> <s_lp_Variant>
ligprep_h3d.sdf:3193-1

> <ROCS_ShapeQuery>
_7L13

> <ROCS_TanimotoCombo>
0.828 

> <ROCS_ShapeTanimoto>
0.669 

> <ROCS_ColorTanimoto>
0.159 

> <ROCS_RefTversky>
0.769 

> <ROCS_RefColorTversky>
0.302 

> <ROCS_RefTverskyCombo>
1.071 

> <ROCS_FitTversky>
0.838 

> <ROCS_FitColorTversky>
0.251 

> <ROCS_FitTverskyCombo>
1.089 

> <ROCS_ColorScore>
-2.746

> <ROCS_Overlap>
1270.907

> <ROCS_Rank>
547                 

$$$$
ligprep_h3d.sdf:895_1490
  -OEChem-08212117123D

 68 72  0     0  0  0  0  0  0999 V2000
  -17.0315   -6.4220  -26.4602 C   0  0  0  0  0  0  0  0  0  0  0  0
  -22.9848   -4.0739  -28.8728 C   0  0  0  0  0  0  0  0  0  0  0  0
  -20.7613   -4.5439  -25.3935 C   0  0  0  0  0  0  0  0  0  0  0  0
  -16.7571   -5.0441  -26.5503 C   0  0  0  0  0  0  0  0  0  0  0  0
  -20.9112   -4.6517  -27.8041 C   0  0  0  0  0  0  0  0  0  0  0  0
  -21.1007   -4.7477  -30.2220 C   0  0  0  0  0  0  0  0  0  0  0  0
  -22.4222   -4.3296  -30.1257 C   0  0  0  0  0  0  0  0  0  0  0  0
  -20.3451   -4.9089  -29.0642 C   0  0  0  0  0  0  0  0  0  0  0  0
  -22.2523   -4.2271  -27.6988 C   0  0  0  0  0  0  0  0  0  0  0  0
  -20.1734   -4.8058  -26.6226 C   0  0  0  0  0  0  0  0  0  0  0  0
  -22.0789   -4.1332  -25.3909 C   0  0  0  0  0  0  0  0  0  0  0  0
  -18.4026   -6.5008  -26.4771 C   0  0  0  0  0  0  0  0  0  0  0  0
  -19.8494   -3.9880  -32.3279 C   0  0  0  0  0  0  0  0  0  0  0  0
  -20.6084   -6.2602  -32.0521 C   0  0  0  0  0  0  0  0  0  0  0  0
  -19.3294   -4.2743  -33.5261 C   0  0  0  0  0  0  0  0  0  0  0  0
  -20.5191   -5.0142  -31.5527 C   0  0  0  0  0  0  0  0  0  0  0  0
  -20.0329   -6.5961  -33.3917 C   0  0  0  0  0  0  0  0  0  0  0  0
  -22.7537   -3.8425  -24.1376 C   0  0  0  0  0  0  0  0  0  0  0  0
  -26.8358   -4.9483  -21.5633 C   0  0  0  0  0  0  0  0  0  0  0  0
  -26.9805   -5.4193  -22.9838 C   0  0  0  0  0  0  0  0  0  0  0  0
  -25.6247   -5.0418  -22.4514 C   0  0  0  0  0  0  0  0  0  0  0  0
  -23.2785   -4.1404  -31.3375 C   0  0  0  0  0  0  0  0  0  0  0  0
  -18.9244   -5.3632  -29.2477 C   0  0  0  0  0  0  0  0  0  0  0  0
  -19.2975   -7.6729  -26.4113 C   0  0  0  0  0  0  0  0  0  0  0  0
  -20.3008   -6.0560  -38.7359 C   0  0  0  0  0  0  0  0  0  0  0  0
  -24.9503   -3.8004  -22.9276 C   0  0  0  0  0  0  0  0  0  0  0  0
  -18.8108   -5.7586  -35.3800 C   0  0  0  0  0  0  0  0  0  0  0  0
  -19.9036   -5.8225  -36.4314 C   0  0  0  0  0  0  0  0  0  0  0  0
  -17.8649   -4.3012  -26.6196 N   0  0  0  0  0  0  0  0  0  0  0  0
  -22.8255   -3.9721  -26.5074 N   0  0  0  0  0  0  0  0  0  0  0  0
  -18.8488   -5.2155  -26.5730 N   0  0  0  0  0  0  0  0  0  0  0  0
  -19.4073   -5.5438  -34.0671 N   0  0  0  0  0  0  0  0  0  0  0  0
  -24.1358   -4.0633  -24.0922 N   0  0  0  0  0  0  0  0  0  0  0  0
  -20.1398   -7.7483  -33.8091 O   0  0  0  0  0  0  0  0  0  0  0  0
  -22.1176   -3.3976  -23.1648 O   0  0  0  0  0  0  0  0  0  0  0  0
  -24.7252   -6.1287  -22.1768 O   0  0  0  0  0  0  0  0  0  0  0  0
  -19.3151   -5.9964  -37.7141 O   0  0  0  0  0  0  0  0  0  0  0  0
  -16.3313   -7.2418  -26.3928 H   0  0  0  0  0  0  0  0  0  0  0  0
  -24.0221   -3.7467  -28.8125 H   0  0  0  0  0  0  0  0  0  0  0  0
  -20.2116   -4.6555  -24.4632 H   0  0  0  0  0  0  0  0  0  0  0  0
  -15.7960   -4.5507  -26.5686 H   0  0  0  0  0  0  0  0  0  0  0  0
  -19.7773   -2.9850  -31.9193 H   0  0  0  0  0  0  0  0  0  0  0  0
  -21.0970   -7.0697  -31.5160 H   0  0  0  0  0  0  0  0  0  0  0  0
  -18.8255   -3.5185  -34.1183 H   0  0  0  0  0  0  0  0  0  0  0  0
  -27.2238   -3.9671  -21.3178 H   0  0  0  0  0  0  0  0  0  0  0  0
  -26.9515   -5.6828  -20.7754 H   0  0  0  0  0  0  0  0  0  0  0  0
  -27.1936   -6.4690  -23.1470 H   0  0  0  0  0  0  0  0  0  0  0  0
  -27.4647   -4.7523  -23.6869 H   0  0  0  0  0  0  0  0  0  0  0  0
  -23.1893   -3.1128  -31.7062 H   0  0  0  0  0  0  0  0  0  0  0  0
  -22.9848   -4.8282  -32.1389 H   0  0  0  0  0  0  0  0  0  0  0  0
  -24.3320   -4.3424  -31.1109 H   0  0  0  0  0  0  0  0  0  0  0  0
  -18.8793   -6.4550  -29.2301 H   0  0  0  0  0  0  0  0  0  0  0  0
  -18.5233   -5.0045  -30.1998 H   0  0  0  0  0  0  0  0  0  0  0  0
  -18.2856   -4.9663  -28.4536 H   0  0  0  0  0  0  0  0  0  0  0  0
  -19.5551   -7.9180  -25.3680 H   0  0  0  0  0  0  0  0  0  0  0  0
  -20.2407   -7.5045  -26.9587 H   0  0  0  0  0  0  0  0  0  0  0  0
  -18.8390   -8.5693  -26.8629 H   0  0  0  0  0  0  0  0  0  0  0  0
  -19.8143   -6.1896  -39.7052 H   0  0  0  0  0  0  0  0  0  0  0  0
  -20.8853   -5.1325  -38.7338 H   0  0  0  0  0  0  0  0  0  0  0  0
  -20.9622   -6.9039  -38.5427 H   0  0  0  0  0  0  0  0  0  0  0  0
  -25.7149   -3.0528  -23.1856 H   0  0  0  0  0  0  0  0  0  0  0  0
  -24.3106   -3.4081  -22.1233 H   0  0  0  0  0  0  0  0  0  0  0  0
  -18.2364   -6.6898  -35.3476 H   0  0  0  0  0  0  0  0  0  0  0  0
  -18.1318   -4.9258  -35.5866 H   0  0  0  0  0  0  0  0  0  0  0  0
  -20.4679   -4.8848  -36.4429 H   0  0  0  0  0  0  0  0  0  0  0  0
  -20.5934   -6.6520  -36.2451 H   0  0  0  0  0  0  0  0  0  0  0  0
  -24.6166   -4.3671  -24.9327 H   0  0  0  0  0  0  0  0  0  0  0  0
  -25.2447   -6.9360  -22.2881 H   0  0  0  0  0  0  0  0  0  0  0  0
  1  4  1  0  0  0  0
  1 12  2  0  0  0  0
  2  7  1  0  0  0  0
  2  9  2  0  0  0  0
  3 10  2  0  0  0  0
  3 11  1  0  0  0  0
  4 29  2  0  0  0  0
  5  8  2  0  0  0  0
  5  9  1  0  0  0  0
  5 10  1  0  0  0  0
  6  7  2  0  0  0  0
  6  8  1  0  0  0  0
  6 16  1  0  0  0  0
  7 22  1  0  0  0  0
  8 23  1  0  0  0  0
  9 30  1  0  0  0  0
 10 31  1  0  0  0  0
 11 18  1  0  0  0  0
 11 30  2  0  0  0  0
 12 24  1  0  0  0  0
 12 31  1  0  0  0  0
 13 15  2  0  0  0  0
 13 16  1  0  0  0  0
 14 16  2  0  0  0  0
 14 17  1  0  0  0  0
 15 32  1  0  0  0  0
 17 32  1  0  0  0  0
 17 34  2  0  0  0  0
 18 33  1  0  0  0  0
 18 35  2  0  0  0  0
 19 20  1  0  0  0  0
 19 21  1  0  0  0  0
 20 21  1  0  0  0  0
 21 26  1  0  0  0  0
 21 36  1  0  0  0  0
 25 37  1  0  0  0  0
 26 33  1  0  0  0  0
 27 28  1  0  0  0  0
 27 32  1  0  0  0  0
 28 37  1  0  0  0  0
 29 31  1  0  0  0  0
  1 38  1  0  0  0  0
  2 39  1  0  0  0  0
  3 40  1  0  0  0  0
  4 41  1  0  0  0  0
 13 42  1  0  0  0  0
 14 43  1  0  0  0  0
 15 44  1  0  0  0  0
 19 45  1  0  0  0  0
 19 46  1  0  0  0  0
 20 47  1  0  0  0  0
 20 48  1  0  0  0  0
 22 49  1  0  0  0  0
 22 50  1  0  0  0  0
 22 51  1  0  0  0  0
 23 52  1  0  0  0  0
 23 53  1  0  0  0  0
 23 54  1  0  0  0  0
 24 55  1  0  0  0  0
 24 56  1  0  0  0  0
 24 57  1  0  0  0  0
 25 58  1  0  0  0  0
 25 59  1  0  0  0  0
 25 60  1  0  0  0  0
 26 61  1  0  0  0  0
 26 62  1  0  0  0  0
 27 63  1  0  0  0  0
 27 64  1  0  0  0  0
 28 65  1  0  0  0  0
 28 66  1  0  0  0  0
 33 67  1  0  0  0  0
 36 68  1  0  0  0  0
M  END
> <SMILES>
COCCN1C=CC(=CC1=O)c1c(cc2nc(cc(c2c1C)-n1nccc1C)C(=O)NCC1(O)CC1)C

> <FORMATTED_ID>
H3D-005801

> <MOLFORMULA>
C28H31N5O4

> <Exact Mass>
501.24

> <XLogP>
2.51

> <TPSA_NOPS>
109.6

> <s_m_source_file>
ligprep_h3d.sdf

> <i_m_source_file_index>
895

> <i_lp_mmshare_version>
55123

> <i_f3d_flags>
0

> <s_epik_input>
W0NIM11PW0NIMl1bQ0gyXW4xW2NIXVtjSF1jKFtjSF1jMT1PKS1jKGMoW2NIXTIpW0NIM10pYyhbQ0gzXSljKGMyMyljKC1uNG5bY0hdW2NIXWM0W0NIM10pW2NIXWMobjMpQyg9TylbTkhdW0NIMl1DNShbT0hdKVtDSDJdW0NIMl01

> <s_epik_cmdline>
J2VwaWtfcHl0aG9uJywgJy1waHQnLCAnMC41JywgJy1waCcsICc3LjUnLCAnLXRuJywgJzgnLCAnLW1hJywgJzUwMCcsICctaW1hZScsICc8aW5maWxlLm1hZT4nLCAnLW9tYWUnLCAnPG91dGZpbGUubWFlPic=

> <r_lp_tautomer_probability>
1

> <r_epik_Ionization_Penalty>
1.15725e-05

> <r_epik_Ionization_Penalty_Charging>
2.32377e-07

> <r_epik_Ionization_Penalty_Neutral>
1.13401e-05

> <r_epik_State_Penalty>
-0

> <r_epik_Charging_Adjusted_Penalty>
2.32377e-07

> <i_epik_Tot_Q>
0

> <i_epik_Tot_abs_Q>
0

> <s_lp_Force_Field>
S-OPLS

> <r_lp_Energy>
84.5443

> <b_lp_Chiralities_Consistent>
1

> <s_lp_Variant>
ligprep_h3d.sdf:895-1

> <ROCS_ShapeQuery>
_7L13

> <ROCS_TanimotoCombo>
0.717 

> <ROCS_ShapeTanimoto>
0.610 

> <ROCS_ColorTanimoto>
0.107 

> <ROCS_RefTversky>
0.769 

> <ROCS_RefColorTversky>
0.221 

> <ROCS_RefTverskyCombo>
0.990 

> <ROCS_FitTversky>
0.747 

> <ROCS_FitColorTversky>
0.171 

> <ROCS_FitTverskyCombo>
0.918 

> <ROCS_ColorScore>
-2.023

> <ROCS_Overlap>
1278.549

> <ROCS_Rank>
548                 

$$$$
ligprep_h3d.sdf:1093_931
  -OEChem-08212117123D

 58 62  0     0  0  0  0  0  0999 V2000
  -19.2730   -6.9841  -35.8558 C   0  0  0  0  0  0  0  0  0  0  0  0
  -20.1871   -3.8502  -32.2718 C   0  0  0  0  0  0  0  0  0  0  0  0
  -20.7576   -6.1924  -32.1115 C   0  0  0  0  0  0  0  0  0  0  0  0
  -19.6688   -4.0638  -33.5490 C   0  0  0  0  0  0  0  0  0  0  0  0
  -20.2393   -6.4060  -33.3888 C   0  0  0  0  0  0  0  0  0  0  0  0
  -16.6761   -4.9324  -26.7090 C   0  0  0  0  0  0  0  0  0  0  0  0
  -23.1400   -4.1391  -28.7984 C   0  0  0  0  0  0  0  0  0  0  0  0
  -20.7609   -4.4861  -25.4087 C   0  0  0  0  0  0  0  0  0  0  0  0
  -17.1500   -6.2548  -26.6160 C   0  0  0  0  0  0  0  0  0  0  0  0
  -20.9959   -4.5937  -27.8125 C   0  0  0  0  0  0  0  0  0  0  0  0
  -20.7315   -4.9145  -31.5530 C   0  0  0  0  0  0  0  0  0  0  0  0
  -21.2714   -4.6919  -30.2220 C   0  0  0  0  0  0  0  0  0  0  0  0
  -19.6949   -5.3417  -34.1075 C   0  0  0  0  0  0  0  0  0  0  0  0
  -22.6111   -4.3554  -30.0733 C   0  0  0  0  0  0  0  0  0  0  0  0
  -20.4637   -4.8112  -29.0947 C   0  0  0  0  0  0  0  0  0  0  0  0
  -22.3553   -4.2519  -27.6539 C   0  0  0  0  0  0  0  0  0  0  0  0
  -20.2055   -4.7071  -26.6608 C   0  0  0  0  0  0  0  0  0  0  0  0
  -22.0999   -4.1564  -25.3537 C   0  0  0  0  0  0  0  0  0  0  0  0
  -17.8125   -4.1617  -26.7382 C   0  0  0  0  0  0  0  0  0  0  0  0
  -22.7440   -3.9135  -24.0743 C   0  0  0  0  0  0  0  0  0  0  0  0
  -26.3794   -4.2385  -22.7776 C   0  0  0  0  0  0  0  0  0  0  0  0
  -25.4776   -5.1700  -22.0240 C   0  0  0  0  0  0  0  0  0  0  0  0
  -24.8925   -4.0112  -22.7838 C   0  0  0  0  0  0  0  0  0  0  0  0
  -23.5227   -4.2128  -31.2507 C   0  0  0  0  0  0  0  0  0  0  0  0
  -19.0256   -5.1778  -29.3335 C   0  0  0  0  0  0  0  0  0  0  0  0
  -17.9772   -2.6976  -26.8288 C   0  0  0  0  0  0  0  0  0  0  0  0
  -19.1405   -5.5701  -35.4730 C   0  0  0  0  0  0  0  0  0  0  0  0
  -19.3761   -8.0997  -36.1580 N   0  0  0  0  0  0  0  0  0  0  0  0
  -18.4836   -6.3238  -26.5878 N   0  0  0  0  0  0  0  0  0  0  0  0
  -22.8970   -4.0368  -26.4401 N   0  0  0  0  0  0  0  0  0  0  0  0
  -18.8573   -5.0351  -26.6635 N   0  0  0  0  0  0  0  0  0  0  0  0
  -24.1075   -4.2183  -23.9796 N   0  0  0  0  0  0  0  0  0  0  0  0
  -22.1002   -3.4355  -23.1224 O   0  0  0  0  0  0  0  0  0  0  0  0
  -20.1589   -2.8483  -31.8498 H   0  0  0  0  0  0  0  0  0  0  0  0
  -21.1791   -7.0321  -31.5640 H   0  0  0  0  0  0  0  0  0  0  0  0
  -19.2457   -3.2290  -34.1013 H   0  0  0  0  0  0  0  0  0  0  0  0
  -20.2642   -7.4049  -33.8165 H   0  0  0  0  0  0  0  0  0  0  0  0
  -15.6528   -4.5885  -26.7487 H   0  0  0  0  0  0  0  0  0  0  0  0
  -24.1923   -3.8759  -28.6967 H   0  0  0  0  0  0  0  0  0  0  0  0
  -20.1707   -4.5675  -24.5001 H   0  0  0  0  0  0  0  0  0  0  0  0
  -16.5790   -7.1709  -26.5674 H   0  0  0  0  0  0  0  0  0  0  0  0
  -26.8486   -4.6125  -23.6794 H   0  0  0  0  0  0  0  0  0  0  0  0
  -26.9916   -3.5539  -22.2036 H   0  0  0  0  0  0  0  0  0  0  0  0
  -25.4825   -5.1127  -20.9425 H   0  0  0  0  0  0  0  0  0  0  0  0
  -25.3417   -6.1689  -22.4202 H   0  0  0  0  0  0  0  0  0  0  0  0
  -24.5253   -3.1784  -22.1937 H   0  0  0  0  0  0  0  0  0  0  0  0
  -23.5091   -3.1802  -31.6158 H   0  0  0  0  0  0  0  0  0  0  0  0
  -23.2191   -4.8783  -32.0670 H   0  0  0  0  0  0  0  0  0  0  0  0
  -24.5528   -4.4785  -30.9858 H   0  0  0  0  0  0  0  0  0  0  0  0
  -18.9142   -6.2649  -29.3240 H   0  0  0  0  0  0  0  0  0  0  0  0
  -18.6832   -4.7918  -30.2976 H   0  0  0  0  0  0  0  0  0  0  0  0
  -18.3831   -4.7457  -28.5612 H   0  0  0  0  0  0  0  0  0  0  0  0
  -18.0396   -2.3691  -27.8791 H   0  0  0  0  0  0  0  0  0  0  0  0
  -18.8899   -2.3513  -26.3145 H   0  0  0  0  0  0  0  0  0  0  0  0
  -17.1384   -2.1570  -26.3577 H   0  0  0  0  0  0  0  0  0  0  0  0
  -18.0830   -5.2756  -35.5140 H   0  0  0  0  0  0  0  0  0  0  0  0
  -19.6569   -4.9397  -36.2097 H   0  0  0  0  0  0  0  0  0  0  0  0
  -24.6000   -4.5466  -24.8038 H   0  0  0  0  0  0  0  0  0  0  0  0
  1 27  1  0  0  0  0
  1 28  3  0  0  0  0
  2  4  1  0  0  0  0
  2 11  2  0  0  0  0
  3  5  2  0  0  0  0
  3 11  1  0  0  0  0
  4 13  2  0  0  0  0
  5 13  1  0  0  0  0
  6  9  1  0  0  0  0
  6 19  2  0  0  0  0
  7 14  2  0  0  0  0
  7 16  1  0  0  0  0
  8 17  1  0  0  0  0
  8 18  2  0  0  0  0
  9 29  2  0  0  0  0
 10 15  1  0  0  0  0
 10 16  1  0  0  0  0
 10 17  2  0  0  0  0
 11 12  1  0  0  0  0
 12 14  1  0  0  0  0
 12 15  2  0  0  0  0
 13 27  1  0  0  0  0
 14 24  1  0  0  0  0
 15 25  1  0  0  0  0
 16 30  2  0  0  0  0
 17 31  1  0  0  0  0
 18 20  1  0  0  0  0
 18 30  1  0  0  0  0
 19 26  1  0  0  0  0
 19 31  1  0  0  0  0
 20 32  1  0  0  0  0
 20 33  2  0  0  0  0
 21 22  1  0  0  0  0
 21 23  1  0  0  0  0
 22 23  1  0  0  0  0
 23 32  1  0  0  0  0
 29 31  1  0  0  0  0
  2 34  1  0  0  0  0
  3 35  1  0  0  0  0
  4 36  1  0  0  0  0
  5 37  1  0  0  0  0
  6 38  1  0  0  0  0
  7 39  1  0  0  0  0
  8 40  1  0  0  0  0
  9 41  1  0  0  0  0
 21 42  1  0  0  0  0
 21 43  1  0  0  0  0
 22 44  1  0  0  0  0
 22 45  1  0  0  0  0
 23 46  1  0  0  0  0
 24 47  1  0  0  0  0
 24 48  1  0  0  0  0
 24 49  1  0  0  0  0
 25 50  1  0  0  0  0
 25 51  1  0  0  0  0
 25 52  1  0  0  0  0
 26 53  1  0  0  0  0
 26 54  1  0  0  0  0
 26 55  1  0  0  0  0
 27 56  1  0  0  0  0
 27 57  1  0  0  0  0
 32 58  1  0  0  0  0
M  END
> <SMILES>
Cc1cc2nc(cc(c2c(c1-c1ccc(cc1)CC#N)C)-n1nccc1C)C(=O)NC1CC1

> <FORMATTED_ID>
H3D-006777

> <MOLFORMULA>
C27H25N5O

> <Exact Mass>
435.21

> <XLogP>
4.68

> <TPSA_NOPS>
83.6

> <s_m_source_file>
ligprep_h3d.sdf

> <i_m_source_file_index>
1093

> <i_lp_mmshare_version>
55123

> <i_f3d_flags>
0

> <s_epik_input>
TiNDW0NIMl1jKFtjSF1bY0hdMSlbY0hdW2NIXWMxLWMoYyhbQ0gzXSlbY0hdMiljKFtDSDNdKWMoYzIzKWMoLW40bltjSF1bY0hdYzRbQ0gzXSlbY0hdYyhuMylDKD1PKVtOSF1bQ0hdNVtDSDJdW0NIMl01

> <s_epik_cmdline>
J2VwaWtfcHl0aG9uJywgJy1waHQnLCAnMC41JywgJy1waCcsICc3LjUnLCAnLXRuJywgJzgnLCAnLW1hJywgJzUwMCcsICctaW1hZScsICc8aW5maWxlLm1hZT4nLCAnLW9tYWUnLCAnPG91dGZpbGUubWFlPic=

> <r_lp_tautomer_probability>
1

> <r_epik_Ionization_Penalty>
2.12921e-05

> <r_epik_Ionization_Penalty_Charging>
0

> <r_epik_Ionization_Penalty_Neutral>
2.12921e-05

> <r_epik_State_Penalty>
-0

> <r_epik_Charging_Adjusted_Penalty>
0

> <i_epik_Tot_Q>
0

> <i_epik_Tot_abs_Q>
0

> <s_lp_Force_Field>
S-OPLS

> <r_lp_Energy>
53.4315

> <b_lp_Chiralities_Consistent>
1

> <s_lp_Variant>
ligprep_h3d.sdf:1093-1

> <ROCS_ShapeQuery>
_7L13

> <ROCS_TanimotoCombo>
0.787 

> <ROCS_ShapeTanimoto>
0.661 

> <ROCS_ColorTanimoto>
0.127 

> <ROCS_RefTversky>
0.769 

> <ROCS_RefColorTversky>
0.225 

> <ROCS_RefTverskyCombo>
0.994 

> <ROCS_FitTversky>
0.824 

> <ROCS_FitColorTversky>
0.225 

> <ROCS_FitTverskyCombo>
1.049 

> <ROCS_ColorScore>
-2.024

> <ROCS_Overlap>
1271.692

> <ROCS_Rank>
549                 

$$$$
ligprep_h3d.sdf:2696_1536
  -OEChem-08212117123D

 69 72  0     0  0  0  0  0  0999 V2000
  -21.0504   -5.6039  -23.9715 C   0  0  0  0  0  0  0  0  0  0  0  0
  -24.4331   -5.6049  -24.8446 C   0  0  0  0  0  0  0  0  0  0  0  0
  -23.8564   -3.4933  -23.8221 C   0  0  0  0  0  0  0  0  0  0  0  0
  -25.5563   -5.6962  -24.0226 C   0  0  0  0  0  0  0  0  0  0  0  0
  -24.9796   -3.5846  -23.0001 C   0  0  0  0  0  0  0  0  0  0  0  0
  -16.7607   -5.0398  -27.2751 C   0  0  0  0  0  0  0  0  0  0  0  0
  -17.0176   -3.7150  -29.2826 C   0  0  0  0  0  0  0  0  0  0  0  0
  -23.5831   -4.5035  -24.7443 C   0  0  0  0  0  0  0  0  0  0  0  0
  -25.8296   -4.6861  -23.1004 C   0  0  0  0  0  0  0  0  0  0  0  0
  -18.1251   -4.8444  -26.9932 C   0  0  0  0  0  0  0  0  0  0  0  0
  -18.9254   -4.1079  -27.8684 C   0  0  0  0  0  0  0  0  0  0  0  0
  -16.2204   -4.4707  -28.4293 C   0  0  0  0  0  0  0  0  0  0  0  0
  -18.3783   -3.5156  -29.0181 C   0  0  0  0  0  0  0  0  0  0  0  0
  -20.0638   -4.8206  -26.0851 C   0  0  0  0  0  0  0  0  0  0  0  0
  -22.4981   -3.7473  -26.9169 C   0  0  0  0  0  0  0  0  0  0  0  0
  -21.2051   -4.9365  -25.2259 C   0  0  0  0  0  0  0  0  0  0  0  0
  -22.3908   -4.4064  -25.6166 C   0  0  0  0  0  0  0  0  0  0  0  0
  -21.4396   -3.6239  -27.7438 C   0  0  0  0  0  0  0  0  0  0  0  0
  -20.1696   -6.9943  -35.1440 C   0  0  0  0  0  0  0  0  0  0  0  0
  -19.4568   -9.2764  -36.7040 C   0  0  0  0  0  0  0  0  0  0  0  0
  -19.7564   -7.7768  -38.6967 C   0  0  0  0  0  0  0  0  0  0  0  0
  -17.9953   -7.2469  -36.9862 C   0  0  0  0  0  0  0  0  0  0  0  0
  -22.8424   -2.9458  -29.6214 C   0  0  0  0  0  0  0  0  0  0  0  0
  -21.2590   -5.9420  -33.1675 C   0  0  0  0  0  0  0  0  0  0  0  0
  -22.6876   -3.0537  -31.1267 C   0  0  0  0  0  0  0  0  0  0  0  0
  -21.8796   -4.5777  -32.9331 C   0  0  0  0  0  0  0  0  0  0  0  0
  -27.0319   -4.7832  -22.2235 C   0  0  0  0  0  0  0  0  0  0  0  0
  -19.3850   -7.8388  -37.2167 C   0  0  0  0  0  0  0  0  0  0  0  0
  -20.9249   -6.1453  -22.9532 N   0  0  0  0  0  0  0  0  0  0  0  0
  -18.8408   -5.2757  -25.9133 N   0  0  0  0  0  0  0  0  0  0  0  0
  -20.2003   -4.1404  -27.3032 N   0  0  0  0  0  0  0  0  0  0  0  0
  -21.5590   -3.0504  -28.9798 N   0  0  0  0  0  0  0  0  0  0  0  0
  -21.1510   -6.2136  -34.6183 N   0  0  0  0  0  0  0  0  0  0  0  0
  -22.0317   -4.3390  -31.4720 N   0  3  0  0  0  0  0  0  0  0  0  0
  -19.2718   -7.5630  -34.5316 O   0  0  0  0  0  0  0  0  0  0  0  0
  -20.3410   -7.0507  -36.4986 O   0  0  0  0  0  0  0  0  0  0  0  0
  -27.7722   -5.9122  -22.4323 F   0  0  0  0  0  0  0  0  0  0  0  0
  -26.7368   -4.7929  -20.8898 F   0  0  0  0  0  0  0  0  0  0  0  0
  -27.8960   -3.7414  -22.3996 F   0  0  0  0  0  0  0  0  0  0  0  0
  -14.5591   -4.7255  -28.8063 Cl  0  0  0  0  0  0  0  0  0  0  0  0
  -19.2071   -2.6760  -30.2709 Cl  0  0  0  0  0  0  0  0  0  0  0  0
  -24.2331   -6.4004  -25.5585 H   0  0  0  0  0  0  0  0  0  0  0  0
  -23.2035   -2.6284  -23.7324 H   0  0  0  0  0  0  0  0  0  0  0  0
  -26.2133   -6.5577  -24.1079 H   0  0  0  0  0  0  0  0  0  0  0  0
  -25.1852   -2.7931  -22.2841 H   0  0  0  0  0  0  0  0  0  0  0  0
  -16.1488   -5.6351  -26.6033 H   0  0  0  0  0  0  0  0  0  0  0  0
  -16.5699   -3.2893  -30.1804 H   0  0  0  0  0  0  0  0  0  0  0  0
  -23.4615   -3.3136  -27.1739 H   0  0  0  0  0  0  0  0  0  0  0  0
  -19.1909   -9.3252  -35.6420 H   0  0  0  0  0  0  0  0  0  0  0  0
  -20.4581   -9.7006  -36.8316 H   0  0  0  0  0  0  0  0  0  0  0  0
  -18.7401   -9.9160  -37.2318 H   0  0  0  0  0  0  0  0  0  0  0  0
  -19.7062   -6.7471  -39.0687 H   0  0  0  0  0  0  0  0  0  0  0  0
  -20.7878   -8.1121  -38.8546 H   0  0  0  0  0  0  0  0  0  0  0  0
  -19.0926   -8.3984  -39.3062 H   0  0  0  0  0  0  0  0  0  0  0  0
  -17.9435   -6.2157  -37.3538 H   0  0  0  0  0  0  0  0  0  0  0  0
  -17.7269   -7.2493  -35.9248 H   0  0  0  0  0  0  0  0  0  0  0  0
  -17.2351   -7.8108  -37.5389 H   0  0  0  0  0  0  0  0  0  0  0  0
  -23.3041   -1.9948  -29.3358 H   0  0  0  0  0  0  0  0  0  0  0  0
  -23.4768   -3.7572  -29.2504 H   0  0  0  0  0  0  0  0  0  0  0  0
  -20.2617   -6.0080  -32.7201 H   0  0  0  0  0  0  0  0  0  0  0  0
  -21.8850   -6.7207  -32.7200 H   0  0  0  0  0  0  0  0  0  0  0  0
  -22.0458   -2.2597  -31.5187 H   0  0  0  0  0  0  0  0  0  0  0  0
  -23.6501   -3.0395  -31.6470 H   0  0  0  0  0  0  0  0  0  0  0  0
  -22.8821   -4.5169  -33.3660 H   0  0  0  0  0  0  0  0  0  0  0  0
  -21.2600   -3.7650  -33.3240 H   0  0  0  0  0  0  0  0  0  0  0  0
  -20.7258   -2.7148  -29.4040 H   0  0  0  0  0  0  0  0  0  0  0  0
  -21.8246   -5.8079  -35.2348 H   0  0  0  0  0  0  0  0  0  0  0  0
  -21.1026   -4.3769  -31.0283 H   0  0  0  0  0  0  0  0  0  0  0  0
  -22.5679   -5.1162  -31.0598 H   0  0  0  0  0  0  0  0  0  0  0  0
  1 16  1  0  0  0  0
  1 29  3  0  0  0  0
  2  4  1  0  0  0  0
  2  8  2  0  0  0  0
  3  5  2  0  0  0  0
  3  8  1  0  0  0  0
  4  9  2  0  0  0  0
  5  9  1  0  0  0  0
  6 10  2  0  0  0  0
  6 12  1  0  0  0  0
  7 12  2  0  0  0  0
  7 13  1  0  0  0  0
  8 17  1  0  0  0  0
  9 27  1  0  0  0  0
 10 11  1  0  0  0  0
 10 30  1  0  0  0  0
 11 13  2  0  0  0  0
 11 31  1  0  0  0  0
 12 40  1  0  0  0  0
 13 41  1  0  0  0  0
 14 16  1  0  0  0  0
 14 30  2  0  0  0  0
 14 31  1  0  0  0  0
 15 17  1  0  0  0  0
 15 18  2  0  0  0  0
 16 17  2  0  0  0  0
 18 31  1  0  0  0  0
 18 32  1  0  0  0  0
 19 33  1  0  0  0  0
 19 35  2  0  0  0  0
 19 36  1  0  0  0  0
 20 28  1  0  0  0  0
 21 28  1  0  0  0  0
 22 28  1  0  0  0  0
 23 25  1  0  0  0  0
 23 32  1  0  0  0  0
 24 26  1  0  0  0  0
 24 33  1  0  0  0  0
 25 34  1  0  0  0  0
 26 34  1  0  0  0  0
 27 37  1  0  0  0  0
 27 38  1  0  0  0  0
 27 39  1  0  0  0  0
 28 36  1  0  0  0  0
  2 42  1  0  0  0  0
  3 43  1  0  0  0  0
  4 44  1  0  0  0  0
  5 45  1  0  0  0  0
  6 46  1  0  0  0  0
  7 47  1  0  0  0  0
 15 48  1  0  0  0  0
 20 49  1  0  0  0  0
 20 50  1  0  0  0  0
 20 51  1  0  0  0  0
 21 52  1  0  0  0  0
 21 53  1  0  0  0  0
 21 54  1  0  0  0  0
 22 55  1  0  0  0  0
 22 56  1  0  0  0  0
 22 57  1  0  0  0  0
 23 58  1  0  0  0  0
 23 59  1  0  0  0  0
 24 60  1  0  0  0  0
 24 61  1  0  0  0  0
 25 62  1  0  0  0  0
 25 63  1  0  0  0  0
 26 64  1  0  0  0  0
 26 65  1  0  0  0  0
 32 66  1  0  0  0  0
 33 67  1  0  0  0  0
 34 68  1  0  0  0  0
 34 69  1  0  0  0  0
M  CHG  1  34   1
M  END
> <SMILES>
CC(C)(C)OC(=O)NCCNCCNc1cc(c(c2nc3cc(cc(c3n12)Cl)Cl)C#N)-c1ccc(cc1)C(F)(F)F

> <FORMATTED_ID>
H3D-007731

> <MOLFORMULA>
C28H27Cl2F3N6O2

> <Exact Mass>
606.15

> <XLogP>
7.64

> <TPSA_NOPS>
103.5

> <s_m_source_file>
ligprep_h3d.sdf

> <i_m_source_file_index>
2696

> <i_lp_mmshare_version>
55123

> <i_f3d_flags>
0

> <s_epik_input>
W0NIM11DKFtDSDNdKShbQ0gzXSlPQyg9TylbTkhdW0NIMl1bQ0gyXVtOSF1bQ0gyXVtDSDJdW05IXWMobihjMTIpYzNjKG4yKVtjSF1jKENsKVtjSF1jM0NsKVtjSF1jKGMxQyNOKS1jNFtjSF1bY0hdYyhDKEYpKEYpRilbY0hdW2NIXTQ=

> <s_epik_cmdline>
J2VwaWtfcHl0aG9uJywgJy1waHQnLCAnMC41JywgJy1waCcsICc3LjUnLCAnLXRuJywgJzgnLCAnLW1hJywgJzUwMCcsICctaW1hZScsICc8aW5maWxlLm1hZT4nLCAnLW9tYWUnLCAnPG91dGZpbGUubWFlPic=

> <r_lp_tautomer_probability>
1

> <r_epik_Ionization_Penalty>
0.00413819

> <r_epik_Ionization_Penalty_Charging>
0.00394772

> <r_epik_Ionization_Penalty_Neutral>
0.000190472

> <r_epik_State_Penalty>
-0

> <r_epik_Charging_Adjusted_Penalty>
0.00394772

> <i_epik_Tot_Q>
1

> <i_epik_Tot_abs_Q>
1

> <s_epik_Chemistry_Notes>
This compound has an ester and may undergo hydrolysis at high or low pH.

> <s_lp_Force_Field>
S-OPLS

> <r_lp_Energy>
58.2007

> <b_lp_Chiralities_Consistent>
1

> <s_lp_Variant>
ligprep_h3d.sdf:2696-1

> <ROCS_ShapeQuery>
_7L13

> <ROCS_TanimotoCombo>
0.710 

> <ROCS_ShapeTanimoto>
0.575 

> <ROCS_ColorTanimoto>
0.135 

> <ROCS_RefTversky>
0.769 

> <ROCS_RefColorTversky>
0.273 

> <ROCS_RefTverskyCombo>
1.042 

> <ROCS_FitTversky>
0.695 

> <ROCS_FitColorTversky>
0.210 

> <ROCS_FitTverskyCombo>
0.905 

> <ROCS_ColorScore>
-2.502

> <ROCS_Overlap>
1284.062

> <ROCS_Rank>
550                 

$$$$
ligprep_h3d.sdf:5418_1030
  -OEChem-08212117123D

 63 68  0     1  0  0  0  0  0999 V2000
  -19.8295   -7.6696  -33.6456 C   0  0  0  0  0  0  0  0  0  0  0  0
  -19.6592   -5.2985  -34.0765 C   0  0  0  0  0  0  0  0  0  0  0  0
  -19.8478   -7.9177  -35.0181 C   0  0  0  0  0  0  0  0  0  0  0  0
  -19.6775   -5.5465  -35.4490 C   0  0  0  0  0  0  0  0  0  0  0  0
  -22.9002   -4.1375  -28.9529 C   0  0  0  0  0  0  0  0  0  0  0  0
  -20.1621   -4.7903  -29.0714 C   0  0  0  0  0  0  0  0  0  0  0  0
  -14.9924   -5.9350  -25.3251 C   0  0  0  0  0  0  0  0  0  0  0  0
  -15.1903   -7.0528  -24.5576 C   0  0  0  0  0  0  0  0  0  0  0  0
  -22.1494   -4.2841  -27.7940 C   0  0  0  0  0  0  0  0  0  0  0  0
  -19.7352   -6.3600  -33.1748 C   0  0  0  0  0  0  0  0  0  0  0  0
  -20.7867   -4.6052  -27.8433 C   0  0  0  0  0  0  0  0  0  0  0  0
  -22.2700   -4.3144  -30.1840 C   0  0  0  0  0  0  0  0  0  0  0  0
  -20.9097   -4.6403  -30.2428 C   0  0  0  0  0  0  0  0  0  0  0  0
  -19.7718   -6.8562  -35.9198 C   0  0  0  0  0  0  0  0  0  0  0  0
  -17.1726   -6.3242  -25.2086 C   0  0  0  0  0  0  0  0  0  0  0  0
  -18.6197   -6.0979  -25.4693 C   0  0  0  0  0  0  0  0  0  0  0  0
  -17.8570   -4.1828  -26.7529 C   0  0  0  0  0  0  0  0  0  0  0  0
  -16.5538   -4.4107  -26.5017 C   0  0  0  0  0  0  0  0  0  0  0  0
  -18.9433   -5.0334  -26.2354 C   0  0  0  0  0  0  0  0  0  0  0  0
  -23.5363   -5.3266  -25.9508 C   0  0  0  0  0  0  0  0  0  0  0  0
  -21.2396   -4.2418  -25.6076 C   0  0  0  0  0  0  0  0  0  0  0  0
  -24.1852   -4.8405  -24.6610 C   0  0  0  0  0  0  0  0  0  0  0  0
  -23.4247   -2.9589  -26.0187 C   0  0  0  0  0  0  0  0  0  0  0  0
  -22.5985   -4.1904  -26.3679 C   0  0  1  0  0  0  0  0  0  0  0  0
  -25.3018   -2.5864  -24.3777 C   0  0  0  0  0  0  0  0  0  0  0  0
  -23.0434   -2.8714  -31.9089 C   0  0  0  0  0  0  0  0  0  0  0  0
  -19.7147   -6.0925  -31.6985 C   0  0  0  0  0  0  0  0  0  0  0  0
  -16.2399   -5.4988  -25.7192 N   0  0  0  0  0  0  0  0  0  0  0  0
  -16.5474   -7.2700  -24.5029 N   0  3  0  0  0  0  0  0  0  0  0  0
  -20.2176   -4.7014  -26.5569 N   0  0  0  0  0  0  0  0  0  0  0  0
  -24.0437   -3.3302  -24.6887 N   0  3  1  0  0  0  0  0  0  0  0  0
  -22.9941   -4.1736  -31.3303 O   0  0  0  0  0  0  0  0  0  0  0  0
  -20.2977   -4.8157  -31.4488 O   0  0  0  0  0  0  0  0  0  0  0  0
  -19.7866   -7.0945  -37.2378 F   0  0  0  0  0  0  0  0  0  0  0  0
  -19.8899   -8.5032  -32.9508 H   0  0  0  0  0  0  0  0  0  0  0  0
  -19.5853   -4.2748  -33.7188 H   0  0  0  0  0  0  0  0  0  0  0  0
  -19.9205   -8.9372  -35.3848 H   0  0  0  0  0  0  0  0  0  0  0  0
  -19.6188   -4.7204  -36.1513 H   0  0  0  0  0  0  0  0  0  0  0  0
  -23.9580   -3.8993  -28.9052 H   0  0  0  0  0  0  0  0  0  0  0  0
  -19.1080   -5.0411  -29.1373 H   0  0  0  0  0  0  0  0  0  0  0  0
  -14.1283   -5.3855  -25.6476 H   0  0  0  0  0  0  0  0  0  0  0  0
  -14.5578   -7.7402  -24.0317 H   0  0  0  0  0  0  0  0  0  0  0  0
  -19.3530   -6.7747  -25.0483 H   0  0  0  0  0  0  0  0  0  0  0  0
  -18.1354   -3.3312  -27.3674 H   0  0  0  0  0  0  0  0  0  0  0  0
  -15.7487   -3.7923  -26.8767 H   0  0  0  0  0  0  0  0  0  0  0  0
  -23.0183   -6.2816  -25.8106 H   0  0  0  0  0  0  0  0  0  0  0  0
  -24.3160   -5.4889  -26.7065 H   0  0  0  0  0  0  0  0  0  0  0  0
  -20.9545   -3.2438  -25.2493 H   0  0  0  0  0  0  0  0  0  0  0  0
  -21.2800   -4.9035  -24.7338 H   0  0  0  0  0  0  0  0  0  0  0  0
  -25.2442   -5.1101  -24.6025 H   0  0  0  0  0  0  0  0  0  0  0  0
  -23.6571   -5.1907  -23.7690 H   0  0  0  0  0  0  0  0  0  0  0  0
  -22.8464   -2.0395  -25.8848 H   0  0  0  0  0  0  0  0  0  0  0  0
  -24.2436   -2.7840  -26.7256 H   0  0  0  0  0  0  0  0  0  0  0  0
  -26.0381   -2.8414  -25.1420 H   0  0  0  0  0  0  0  0  0  0  0  0
  -25.6390   -2.8994  -23.3877 H   0  0  0  0  0  0  0  0  0  0  0  0
  -25.0719   -1.5193  -24.3948 H   0  0  0  0  0  0  0  0  0  0  0  0
  -23.6519   -2.8978  -32.8162 H   0  0  0  0  0  0  0  0  0  0  0  0
  -22.0299   -2.5387  -32.1467 H   0  0  0  0  0  0  0  0  0  0  0  0
  -23.4927   -2.1805  -31.1916 H   0  0  0  0  0  0  0  0  0  0  0  0
  -20.2805   -6.8561  -31.1540 H   0  0  0  0  0  0  0  0  0  0  0  0
  -18.6878   -6.0991  -31.3175 H   0  0  0  0  0  0  0  0  0  0  0  0
  -17.0023   -8.0298  -24.0041 H   0  0  0  0  0  0  0  0  0  0  0  0
  -23.3590   -3.0812  -23.9616 H   0  0  0  0  0  0  0  0  0  0  0  0
  1  3  1  0  0  0  0
  1 10  2  0  0  0  0
  2  4  2  0  0  0  0
  2 10  1  0  0  0  0
  3 14  2  0  0  0  0
  4 14  1  0  0  0  0
  5  9  1  0  0  0  0
  5 12  2  0  0  0  0
  6 11  1  0  0  0  0
  6 13  2  0  0  0  0
  7  8  2  0  0  0  0
  7 28  1  0  0  0  0
  8 29  1  0  0  0  0
  9 11  2  0  0  0  0
  9 24  1  0  0  0  0
 10 27  1  0  0  0  0
 11 30  1  0  0  0  0
 12 13  1  0  0  0  0
 12 32  1  0  0  0  0
 13 33  1  0  0  0  0
 14 34  1  0  0  0  0
 15 16  1  0  0  0  0
 15 28  1  0  0  0  0
 15 29  2  0  0  0  0
 16 19  2  0  0  0  0
 17 18  2  0  0  0  0
 17 19  1  0  0  0  0
 18 28  1  0  0  0  0
 19 30  1  0  0  0  0
 20 22  1  0  0  0  0
 20 24  1  0  0  0  0
 21 24  1  0  0  0  0
 21 30  1  0  0  0  0
 22 31  1  0  0  0  0
 23 24  1  0  0  0  0
 23 31  1  0  0  0  0
 25 31  1  0  0  0  0
 26 32  1  0  0  0  0
 27 33  1  0  0  0  0
  1 35  1  0  0  0  0
  2 36  1  0  0  0  0
  3 37  1  0  0  0  0
  4 38  1  0  0  0  0
  5 39  1  0  0  0  0
  6 40  1  0  0  0  0
  7 41  1  0  0  0  0
  8 42  1  0  0  0  0
 16 43  1  0  0  0  0
 17 44  1  0  0  0  0
 18 45  1  0  0  0  0
 20 46  1  0  0  0  0
 20 47  1  0  0  0  0
 21 48  1  0  0  0  0
 21 49  1  0  0  0  0
 22 50  1  0  0  0  0
 22 51  1  0  0  0  0
 23 52  1  0  0  0  0
 23 53  1  0  0  0  0
 25 54  1  0  0  0  0
 25 55  1  0  0  0  0
 25 56  1  0  0  0  0
 26 57  1  0  0  0  0
 26 58  1  0  0  0  0
 26 59  1  0  0  0  0
 27 60  1  0  0  0  0
 27 61  1  0  0  0  0
 29 62  1  0  0  0  0
 31 63  1  0  0  0  0
M  CHG  2  29   1  31   1
M  END
> <SMILES>
COc1cc2c(cc1OCc1ccc(cc1)F)N(CC12CCN(C)C1)c1ccn2ccnc2c1

> <FORMATTED_ID>
H3D-015650

> <MOLFORMULA>
C27H27FN4O2

> <Exact Mass>
458.21

> <XLogP>
5.72

> <TPSA_NOPS>
42.2

> <s_m_source_file>
ligprep_h3d.sdf

> <i_m_source_file_index>
5418

> <i_lp_mmshare_version>
55123

> <i_f3d_flags>
0

> <s_epik_input>
W2NIXTFbY0hdYyhGKVtjSF1bY0hdYzFbQ0gyXU9jKGMoW2NIXTIpT1tDSDNdKVtjSF1jKGMyW0NAQF0zNFtDSDJdW0NIMl1OKFtDSDNdKVtDSDJdNClOKFtDSDJdMyljKFtjSF1bY0hdNSlbY0hdYyhuNTYpbltjSF1bY0hdNg==

> <s_epik_cmdline>
J2VwaWtfcHl0aG9uJywgJy1waHQnLCAnMC41JywgJy1waCcsICc3LjUnLCAnLXRuJywgJzgnLCAnLW1hJywgJzUwMCcsICctaW1hZScsICc8aW5maWxlLm1hZT4nLCAnLW9tYWUnLCAnPG91dGZpbGUubWFlPic=

> <r_lp_tautomer_probability>
1

> <r_epik_Ionization_Penalty>
0.434791

> <r_epik_Ionization_Penalty_Charging>
0.00537528

> <r_epik_Ionization_Penalty_Neutral>
0.429415

> <r_epik_State_Penalty>
0.430693

> <r_epik_Charging_Adjusted_Penalty>
0.436068

> <i_epik_Tot_Q>
2

> <i_epik_Tot_abs_Q>
2

> <s_lp_Force_Field>
S-OPLS

> <r_lp_Energy>
60.4531

> <b_lp_Chiralities_Consistent>
1

> <s_lp_Variant>
ligprep_h3d.sdf:5418-2

> <ROCS_ShapeQuery>
_7L13

> <ROCS_TanimotoCombo>
0.695 

> <ROCS_ShapeTanimoto>
0.643 

> <ROCS_ColorTanimoto>
0.052 

> <ROCS_RefTversky>
0.769 

> <ROCS_RefColorTversky>
0.114 

> <ROCS_RefTverskyCombo>
0.883 

> <ROCS_FitTversky>
0.797 

> <ROCS_FitColorTversky>
0.088 

> <ROCS_FitTverskyCombo>
0.885 

> <ROCS_ColorScore>
-1.045

> <ROCS_Overlap>
1273.906

> <ROCS_Rank>
551                 

$$$$
ligprep_h3d.sdf:5134_907
  -OEChem-08212117123D

 61 65  0     0  0  0  0  0  0999 V2000
  -21.2335   -6.3274  -33.4728 C   0  0  0  0  0  0  0  0  0  0  0  0
  -20.2218   -4.1577  -33.1472 C   0  0  0  0  0  0  0  0  0  0  0  0
  -20.3194   -6.6010  -34.4902 C   0  0  0  0  0  0  0  0  0  0  0  0
  -19.3077   -4.4313  -34.1646 C   0  0  0  0  0  0  0  0  0  0  0  0
  -18.4027   -3.8798  -26.0572 C   0  0  0  0  0  0  0  0  0  0  0  0
  -18.7031   -6.1790  -25.4187 C   0  0  0  0  0  0  0  0  0  0  0  0
  -23.7035   -3.9969  -27.7836 C   0  0  0  0  0  0  0  0  0  0  0  0
  -21.0051   -4.3901  -28.4851 C   0  0  0  0  0  0  0  0  0  0  0  0
  -17.0443   -4.0554  -25.8483 C   0  0  0  0  0  0  0  0  0  0  0  0
  -17.3312   -6.2518  -25.2385 C   0  0  0  0  0  0  0  0  0  0  0  0
  -22.7544   -4.3293  -26.8244 C   0  0  0  0  0  0  0  0  0  0  0  0
  -21.1847   -5.1058  -32.8013 C   0  0  0  0  0  0  0  0  0  0  0  0
  -19.2411   -4.9667  -25.8361 C   0  0  0  0  0  0  0  0  0  0  0  0
  -21.4046   -4.5103  -27.1598 C   0  0  0  0  0  0  0  0  0  0  0  0
  -23.2950   -3.8638  -29.1091 C   0  0  0  0  0  0  0  0  0  0  0  0
  -21.9549   -4.0635  -29.4581 C   0  0  0  0  0  0  0  0  0  0  0  0
  -19.3565   -5.6529  -34.8362 C   0  0  0  0  0  0  0  0  0  0  0  0
  -23.1209   -3.1374  -24.6540 C   0  0  0  0  0  0  0  0  0  0  0  0
  -24.1333   -5.4277  -24.9935 C   0  0  0  0  0  0  0  0  0  0  0  0
  -21.5843   -5.1761  -24.9663 C   0  0  0  0  0  0  0  0  0  0  0  0
  -23.4024   -3.2422  -23.1585 C   0  0  0  0  0  0  0  0  0  0  0  0
  -24.3627   -5.5363  -23.4917 C   0  0  0  0  0  0  0  0  0  0  0  0
  -22.9477   -4.5097  -25.3384 C   0  0  0  0  0  0  0  0  0  0  0  0
  -24.9558   -4.2087  -21.4672 C   0  0  0  0  0  0  0  0  0  0  0  0
  -24.4169   -2.1516  -30.3197 C   0  0  0  0  0  0  0  0  0  0  0  0
  -22.1668   -4.8117  -31.7056 C   0  0  0  0  0  0  0  0  0  0  0  0
  -16.4849   -5.2175  -25.4431 N   0  0  0  0  0  0  0  0  0  0  0  0
  -20.6197   -4.8413  -26.0321 N   0  0  0  0  0  0  0  0  0  0  0  0
  -24.5793   -4.1553  -22.9226 N   0  3  0  0  0  0  0  0  0  0  0  0
  -24.2144   -3.5393  -30.0614 O   0  0  0  0  0  0  0  0  0  0  0  0
  -21.5581   -3.9388  -30.7571 O   0  0  0  0  0  0  0  0  0  0  0  0
  -18.2289   -5.9907  -36.0912 Cl  0  0  0  0  0  0  0  0  0  0  0  0
  -21.9809   -7.0712  -33.2092 H   0  0  0  0  0  0  0  0  0  0  0  0
  -20.1769   -3.2036  -32.6287 H   0  0  0  0  0  0  0  0  0  0  0  0
  -20.3693   -7.5573  -35.0044 H   0  0  0  0  0  0  0  0  0  0  0  0
  -18.5630   -3.6830  -34.4234 H   0  0  0  0  0  0  0  0  0  0  0  0
  -18.7905   -2.9205  -26.3834 H   0  0  0  0  0  0  0  0  0  0  0  0
  -19.3286   -7.0466  -25.2372 H   0  0  0  0  0  0  0  0  0  0  0  0
  -24.7415   -3.8381  -27.5095 H   0  0  0  0  0  0  0  0  0  0  0  0
  -19.9672   -4.5412  -28.7677 H   0  0  0  0  0  0  0  0  0  0  0  0
  -16.3480   -3.2385  -26.0071 H   0  0  0  0  0  0  0  0  0  0  0  0
  -16.8617   -7.1747  -24.9142 H   0  0  0  0  0  0  0  0  0  0  0  0
  -23.9505   -2.5918  -25.1250 H   0  0  0  0  0  0  0  0  0  0  0  0
  -22.2297   -2.5144  -24.8049 H   0  0  0  0  0  0  0  0  0  0  0  0
  -23.9794   -6.4311  -25.4106 H   0  0  0  0  0  0  0  0  0  0  0  0
  -25.0540   -5.0506  -25.4582 H   0  0  0  0  0  0  0  0  0  0  0  0
  -21.2093   -4.8477  -23.9908 H   0  0  0  0  0  0  0  0  0  0  0  0
  -21.6883   -6.2696  -24.9241 H   0  0  0  0  0  0  0  0  0  0  0  0
  -22.5513   -3.6457  -22.6005 H   0  0  0  0  0  0  0  0  0  0  0  0
  -23.6640   -2.2597  -22.7511 H   0  0  0  0  0  0  0  0  0  0  0  0
  -25.2650   -6.1211  -23.2845 H   0  0  0  0  0  0  0  0  0  0  0  0
  -23.5104   -5.9849  -22.9700 H   0  0  0  0  0  0  0  0  0  0  0  0
  -24.1154   -4.6403  -20.9206 H   0  0  0  0  0  0  0  0  0  0  0  0
  -25.1568   -3.1880  -21.1364 H   0  0  0  0  0  0  0  0  0  0  0  0
  -25.8462   -4.8337  -21.3752 H   0  0  0  0  0  0  0  0  0  0  0  0
  -25.1740   -2.0318  -31.0985 H   0  0  0  0  0  0  0  0  0  0  0  0
  -23.4751   -1.6984  -30.6394 H   0  0  0  0  0  0  0  0  0  0  0  0
  -24.7601   -1.6658  -29.4033 H   0  0  0  0  0  0  0  0  0  0  0  0
  -23.0675   -4.3331  -32.1048 H   0  0  0  0  0  0  0  0  0  0  0  0
  -22.4719   -5.7345  -31.2004 H   0  0  0  0  0  0  0  0  0  0  0  0
  -25.3852   -3.7460  -23.4150 H   0  0  0  0  0  0  0  0  0  0  0  0
  1  3  1  0  0  0  0
  1 12  2  0  0  0  0
  2  4  2  0  0  0  0
  2 12  1  0  0  0  0
  3 17  2  0  0  0  0
  4 17  1  0  0  0  0
  5  9  1  0  0  0  0
  5 13  2  0  0  0  0
  6 10  2  0  0  0  0
  6 13  1  0  0  0  0
  7 11  1  0  0  0  0
  7 15  2  0  0  0  0
  8 14  1  0  0  0  0
  8 16  2  0  0  0  0
  9 27  2  0  0  0  0
 10 27  1  0  0  0  0
 11 14  2  0  0  0  0
 11 23  1  0  0  0  0
 12 26  1  0  0  0  0
 13 28  1  0  0  0  0
 14 28  1  0  0  0  0
 15 16  1  0  0  0  0
 15 30  1  0  0  0  0
 16 31  1  0  0  0  0
 17 32  1  0  0  0  0
 18 21  1  0  0  0  0
 18 23  1  0  0  0  0
 19 22  1  0  0  0  0
 19 23  1  0  0  0  0
 20 23  1  0  0  0  0
 20 28  1  0  0  0  0
 21 29  1  0  0  0  0
 22 29  1  0  0  0  0
 24 29  1  0  0  0  0
 25 30  1  0  0  0  0
 26 31  1  0  0  0  0
  1 33  1  0  0  0  0
  2 34  1  0  0  0  0
  3 35  1  0  0  0  0
  4 36  1  0  0  0  0
  5 37  1  0  0  0  0
  6 38  1  0  0  0  0
  7 39  1  0  0  0  0
  8 40  1  0  0  0  0
  9 41  1  0  0  0  0
 10 42  1  0  0  0  0
 18 43  1  0  0  0  0
 18 44  1  0  0  0  0
 19 45  1  0  0  0  0
 19 46  1  0  0  0  0
 20 47  1  0  0  0  0
 20 48  1  0  0  0  0
 21 49  1  0  0  0  0
 21 50  1  0  0  0  0
 22 51  1  0  0  0  0
 22 52  1  0  0  0  0
 24 53  1  0  0  0  0
 24 54  1  0  0  0  0
 24 55  1  0  0  0  0
 25 56  1  0  0  0  0
 25 57  1  0  0  0  0
 25 58  1  0  0  0  0
 26 59  1  0  0  0  0
 26 60  1  0  0  0  0
 29 61  1  0  0  0  0
M  CHG  1  29   1
M  END
> <SMILES>
COc1cc2c(cc1OCc1ccc(cc1)Cl)N(CC12CCN(C)CC1)c1ccncc1

> <FORMATTED_ID>
H3D-013399

> <MOLFORMULA>
C26H28ClN3O2

> <Exact Mass>
449.19

> <XLogP>
5.52

> <TPSA_NOPS>
37.8

> <s_m_source_file>
ligprep_h3d.sdf

> <i_m_source_file_index>
5134

> <i_lp_mmshare_version>
55123

> <i_f3d_flags>
0

> <s_epik_input>
W2NIXTFbY0hdYyhDbClbY0hdW2NIXWMxW0NIMl1PYyhjKFtjSF0yKU9bQ0gzXSlbY0hdYyhjMkMzNFtDSDJdW0NIMl1OKFtDSDNdKVtDSDJdW0NIMl00KU4oW0NIMl0zKWM1W2NIXVtjSF1uW2NIXVtjSF01

> <s_epik_cmdline>
J2VwaWtfcHl0aG9uJywgJy1waHQnLCAnMC41JywgJy1waCcsICc3LjUnLCAnLXRuJywgJzgnLCAnLW1hJywgJzUwMCcsICctaW1hZScsICc8aW5maWxlLm1hZT4nLCAnLW9tYWUnLCAnPG91dGZpbGUubWFlPic=

> <r_lp_tautomer_probability>
1

> <r_epik_Ionization_Penalty>
0.130099

> <r_epik_Ionization_Penalty_Charging>
0.00689193

> <r_epik_Ionization_Penalty_Neutral>
0.123207

> <r_epik_State_Penalty>
0.112704

> <r_epik_Charging_Adjusted_Penalty>
0.119596

> <i_epik_Tot_Q>
1

> <i_epik_Tot_abs_Q>
1

> <s_lp_Force_Field>
S-OPLS

> <r_lp_Energy>
69.1817

> <b_lp_Chiralities_Consistent>
1

> <s_lp_Variant>
ligprep_h3d.sdf:5134-1

> <ROCS_ShapeQuery>
_7L13

> <ROCS_TanimotoCombo>
0.794 

> <ROCS_ShapeTanimoto>
0.686 

> <ROCS_ColorTanimoto>
0.109 

> <ROCS_RefTversky>
0.769 

> <ROCS_RefColorTversky>
0.206 

> <ROCS_RefTverskyCombo>
0.974 

> <ROCS_FitTversky>
0.864 

> <ROCS_FitColorTversky>
0.187 

> <ROCS_FitTverskyCombo>
1.051 

> <ROCS_ColorScore>
-1.863

> <ROCS_Overlap>
1268.467

> <ROCS_Rank>
552                 

$$$$
ligprep_h3d.sdf:727_24
  -OEChem-08212117123D

 58 63  0     1  0  0  0  0  0999 V2000
  -20.9880   -5.1504  -29.5050 C   0  0  0  0  0  0  0  0  0  0  0  0
  -21.7532   -4.3826  -30.3854 C   0  0  0  0  0  0  0  0  0  0  0  0
  -21.0999   -4.9057  -28.1152 C   0  0  0  0  0  0  0  0  0  0  0  0
  -21.9863   -3.9405  -27.5815 C   0  0  0  0  0  0  0  0  0  0  0  0
  -22.5894   -3.4214  -29.8614 C   0  0  0  0  0  0  0  0  0  0  0  0
  -22.7355   -3.1654  -28.4978 C   0  0  0  0  0  0  0  0  0  0  0  0
  -21.9471   -4.2742  -31.7751 C   0  0  0  0  0  0  0  0  0  0  0  0
  -18.9008   -3.8224  -26.2428 C   0  0  0  0  0  0  0  0  0  0  0  0
  -19.2361   -6.0304  -25.0125 C   0  0  0  0  0  0  0  0  0  0  0  0
  -17.0562   -5.1686  -25.8355 C   0  0  0  0  0  0  0  0  0  0  0  0
  -20.2501   -5.7363  -27.1911 C   0  0  0  0  0  0  0  0  0  0  0  0
  -21.3700   -6.5358  -32.6919 C   0  0  0  0  0  0  0  0  0  0  0  0
  -20.3873   -4.5762  -33.7153 C   0  0  0  0  0  0  0  0  0  0  0  0
  -23.0527   -2.7982  -25.6473 C   0  0  0  0  0  0  0  0  0  0  0  0
  -21.2018   -4.4636  -25.2372 C   0  0  2  0  0  0  0  0  0  0  0  0
  -20.7088   -6.9290  -34.0105 C   0  0  1  0  0  0  0  0  0  0  0  0
  -19.6802   -5.8275  -34.2311 C   0  0  1  0  0  0  0  0  0  0  0  0
  -23.4210   -3.1145  -24.1948 C   0  0  1  0  0  0  0  0  0  0  0  0
  -21.0437   -3.5263  -24.0040 C   0  0  2  0  0  0  0  0  0  0  0  0
  -19.8776   -4.9708  -25.8973 C   0  0  2  0  0  0  0  0  0  0  0  0
  -24.4038   -4.2780  -24.0780 C   0  0  0  0  0  0  0  0  0  0  0  0
  -20.0822   -3.9936  -22.9186 C   0  0  0  0  0  0  0  0  0  0  0  0
  -22.8298   -3.3219  -32.0910 N   0  0  0  0  0  0  0  0  0  0  0  0
  -17.6388   -4.1705  -26.5009 N   0  5  0  0  0  0  0  0  0  0  0  0
  -17.8567   -6.0156  -25.0711 N   0  0  0  0  0  0  0  0  0  0  0  0
  -22.0939   -3.7632  -26.1999 N   0  0  3  0  0  0  0  0  0  0  0  0
  -21.2763   -5.0788  -32.6717 N   0  0  0  0  0  0  0  0  0  0  0  0
  -19.3108   -2.6701  -26.3812 O   0  0  0  0  0  0  0  0  0  0  0  0
  -19.8697   -6.8661  -24.3717 O   0  0  0  0  0  0  0  0  0  0  0  0
  -15.8424   -5.3861  -25.8823 O   0  0  0  0  0  0  0  0  0  0  0  0
  -23.2337   -2.7816  -30.8756 O   0  0  0  0  0  0  0  0  0  0  0  0
  -22.3079   -3.3753  -23.3447 O   0  0  0  0  0  0  0  0  0  0  0  0
  -20.0837   -8.1949  -33.8982 O   0  0  0  0  0  0  0  0  0  0  0  0
  -19.3694   -5.7163  -35.6084 O   0  0  0  0  0  0  0  0  0  0  0  0
  -23.5013   -2.1307  -28.1315 F   0  0  0  0  0  0  0  0  0  0  0  0
  -20.3125   -5.9143  -29.8795 H   0  0  0  0  0  0  0  0  0  0  0  0
  -20.8117   -6.6504  -26.9546 H   0  0  0  0  0  0  0  0  0  0  0  0
  -19.3400   -6.0578  -27.7144 H   0  0  0  0  0  0  0  0  0  0  0  0
  -22.4285   -6.8253  -32.6840 H   0  0  0  0  0  0  0  0  0  0  0  0
  -20.8647   -6.9809  -31.8257 H   0  0  0  0  0  0  0  0  0  0  0  0
  -19.6686   -3.8777  -33.2680 H   0  0  0  0  0  0  0  0  0  0  0  0
  -20.9486   -4.0637  -34.5064 H   0  0  0  0  0  0  0  0  0  0  0  0
  -23.9643   -2.8419  -26.2781 H   0  0  0  0  0  0  0  0  0  0  0  0
  -22.7412   -1.7429  -25.6895 H   0  0  0  0  0  0  0  0  0  0  0  0
  -21.7760   -5.3430  -24.9037 H   0  0  0  0  0  0  0  0  0  0  0  0
  -21.4597   -6.9754  -34.8226 H   0  0  0  0  0  0  0  0  0  0  0  0
  -18.7442   -6.0087  -33.6699 H   0  0  0  0  0  0  0  0  0  0  0  0
  -23.9689   -2.2091  -23.7578 H   0  0  0  0  0  0  0  0  0  0  0  0
  -20.7136   -2.5184  -24.3139 H   0  0  0  0  0  0  0  0  0  0  0  0
  -23.9541   -5.1877  -24.4765 H   0  0  0  0  0  0  0  0  0  0  0  0
  -25.3117   -4.0572  -24.6396 H   0  0  0  0  0  0  0  0  0  0  0  0
  -24.6657   -4.4417  -23.0325 H   0  0  0  0  0  0  0  0  0  0  0  0
  -20.3634   -4.9891  -22.5747 H   0  0  0  0  0  0  0  0  0  0  0  0
  -20.1115   -3.3061  -22.0733 H   0  0  0  0  0  0  0  0  0  0  0  0
  -19.0657   -4.0290  -23.3109 H   0  0  0  0  0  0  0  0  0  0  0  0
  -17.3722   -6.6967  -24.4941 H   0  0  0  0  0  0  0  0  0  0  0  0
  -20.7800   -8.8310  -33.6683 H   0  0  0  0  0  0  0  0  0  0  0  0
  -18.7870   -4.9454  -35.7021 H   0  0  0  0  0  0  0  0  0  0  0  0
  1  2  2  0  0  0  0
  1  3  1  0  0  0  0
  2  5  1  0  0  0  0
  2  7  1  0  0  0  0
  3  4  2  0  0  0  0
  3 11  1  0  0  0  0
  4  6  1  0  0  0  0
  4 26  1  0  0  0  0
  5  6  2  0  0  0  0
  5 31  1  0  0  0  0
  6 35  1  0  0  0  0
  7 23  2  0  0  0  0
  7 27  1  0  0  0  0
  8 20  1  0  0  0  0
  8 24  1  0  0  0  0
  8 28  2  0  0  0  0
  9 20  1  0  0  0  0
  9 25  1  0  0  0  0
  9 29  2  0  0  0  0
 10 24  1  0  0  0  0
 10 25  1  0  0  0  0
 10 30  2  0  0  0  0
 11 20  1  0  0  0  0
 12 16  1  0  0  0  0
 12 27  1  0  0  0  0
 13 17  1  0  0  0  0
 13 27  1  0  0  0  0
 14 18  1  0  0  0  0
 14 26  1  0  0  0  0
 15 19  1  0  0  0  0
 15 20  1  0  0  0  0
 15 26  1  0  0  0  0
 16 17  1  0  0  0  0
 16 33  1  0  0  0  0
 17 34  1  0  0  0  0
 18 21  1  0  0  0  0
 18 32  1  0  0  0  0
 19 22  1  0  0  0  0
 19 32  1  0  0  0  0
 23 31  1  0  0  0  0
  1 36  1  0  0  0  0
 11 37  1  0  0  0  0
 11 38  1  0  0  0  0
 12 39  1  0  0  0  0
 12 40  1  0  0  0  0
 13 41  1  0  0  0  0
 13 42  1  0  0  0  0
 14 43  1  0  0  0  0
 14 44  1  0  0  0  0
 15 45  1  0  0  0  0
 16 46  1  0  0  0  0
 17 47  1  0  0  0  0
 18 48  1  0  0  0  0
 19 49  1  0  0  0  0
 21 50  1  0  0  0  0
 21 51  1  0  0  0  0
 21 52  1  0  0  0  0
 22 53  1  0  0  0  0
 22 54  1  0  0  0  0
 22 55  1  0  0  0  0
 25 56  1  0  0  0  0
 33 57  1  0  0  0  0
 34 58  1  0  0  0  0
M  CHG  1  24  -1
M  END
> <SMILES>
C[C@@H]1CN2[C@H]([C@H](C)O1)C1(Cc3cc4c(noc4c(c32)F)N2C[C@H](O)[C@@H](O)C2)C(=O)NC(=O)NC1=O

> <FORMATTED_ID>
H3D-004957

> <MOLFORMULA>
C22H24FN5O7

> <Exact Mass>
489.17

> <XLogP>
-1.33

> <TPSA_NOPS>
157.8

> <s_m_source_file>
ligprep_h3d.sdf

> <i_m_source_file_index>
727

> <i_lp_mmshare_version>
55123

> <i_f3d_flags>
0

> <s_epik_input>
Tz1DMVtOSF1DKD1PKVtOSF1DKD1PKUMxMltDQEBIXTNOKFtDSDJdW0NAQEhdKFtDSDNdKU9bQ0BIXTNbQ0gzXSljNGMoW0NIMl0yKVtjSF1jNWMoYzRGKW9uYzVONltDSDJdW0NASF0oW09IXSlbQ0BASF0oW09IXSlbQ0gyXTY=

> <s_epik_cmdline>
J2VwaWtfcHl0aG9uJywgJy1waHQnLCAnMC41JywgJy1waCcsICc3LjUnLCAnLXRuJywgJzgnLCAnLW1hJywgJzUwMCcsICctaW1hZScsICc8aW5maWxlLm1hZT4nLCAnLW9tYWUnLCAnPG91dGZpbGUubWFlPic=

> <r_lp_tautomer_probability>
1

> <r_epik_Ionization_Penalty>
0.455393

> <r_epik_Ionization_Penalty_Charging>
0.455373

> <r_epik_Ionization_Penalty_Neutral>
2.00145e-05

> <r_epik_State_Penalty>
0.458483

> <r_epik_Charging_Adjusted_Penalty>
0.913857

> <i_epik_Tot_Q>
-1

> <i_epik_Tot_abs_Q>
1

> <s_lp_Force_Field>
S-OPLS

> <r_lp_Energy>
51.6127

> <b_lp_Chiralities_Consistent>
1

> <s_lp_Variant>
ligprep_h3d.sdf:727-2

> <ROCS_ShapeQuery>
_7L13

> <ROCS_TanimotoCombo>
0.737 

> <ROCS_ShapeTanimoto>
0.623 

> <ROCS_ColorTanimoto>
0.114 

> <ROCS_RefTversky>
0.769 

> <ROCS_RefColorTversky>
0.293 

> <ROCS_RefTverskyCombo>
1.062 

> <ROCS_FitTversky>
0.767 

> <ROCS_FitColorTversky>
0.158 

> <ROCS_FitTverskyCombo>
0.925 

> <ROCS_ColorScore>
-2.773

> <ROCS_Overlap>
1276.361

> <ROCS_Rank>
553                 

$$$$
ligprep_h3d.sdf:2920_1536
  -OEChem-08212117123D

 67 71  0     0  0  0  0  0  0999 V2000
  -24.9413   -3.4609  -25.0965 C   0  0  0  0  0  0  0  0  0  0  0  0
  -23.3254   -4.8601  -23.9705 C   0  0  0  0  0  0  0  0  0  0  0  0
  -25.9776   -4.2183  -24.5506 C   0  0  0  0  0  0  0  0  0  0  0  0
  -24.3616   -5.6175  -23.4245 C   0  0  0  0  0  0  0  0  0  0  0  0
  -19.5949   -7.6514  -34.4587 C   0  0  0  0  0  0  0  0  0  0  0  0
  -19.3039   -7.6064  -33.0953 C   0  0  0  0  0  0  0  0  0  0  0  0
  -20.4855   -5.4086  -34.3427 C   0  0  0  0  0  0  0  0  0  0  0  0
  -18.6604   -5.5854  -26.8348 C   0  0  0  0  0  0  0  0  0  0  0  0
  -19.6492   -4.0842  -24.6308 C   0  0  0  0  0  0  0  0  0  0  0  0
  -23.6152   -3.7818  -24.8066 C   0  0  0  0  0  0  0  0  0  0  0  0
  -25.6878   -5.2966  -23.7146 C   0  0  0  0  0  0  0  0  0  0  0  0
  -20.1945   -5.3636  -32.9792 C   0  0  0  0  0  0  0  0  0  0  0  0
  -19.9210   -4.9684  -26.9030 C   0  0  0  0  0  0  0  0  0  0  0  0
  -20.3798   -4.2398  -25.8092 C   0  0  0  0  0  0  0  0  0  0  0  0
  -20.1856   -6.5524  -35.0824 C   0  0  0  0  0  0  0  0  0  0  0  0
  -19.6037   -6.4626  -32.3556 C   0  0  0  0  0  0  0  0  0  0  0  0
  -17.9092   -5.4428  -25.6614 C   0  0  0  0  0  0  0  0  0  0  0  0
  -18.3967   -4.7051  -24.5801 C   0  0  0  0  0  0  0  0  0  0  0  0
  -21.8449   -4.2336  -27.4669 C   0  0  0  0  0  0  0  0  0  0  0  0
  -22.8247   -5.0676  -30.2446 C   0  0  0  0  0  0  0  0  0  0  0  0
  -22.2642   -2.6158  -30.0317 C   0  0  0  0  0  0  0  0  0  0  0  0
  -22.8797   -4.9158  -31.7581 C   0  0  0  0  0  0  0  0  0  0  0  0
  -22.3222   -2.4790  -31.5467 C   0  0  0  0  0  0  0  0  0  0  0  0
  -23.1528   -3.7555  -29.5290 C   0  0  0  0  0  0  0  0  0  0  0  0
  -20.1357   -7.7972  -37.1083 C   0  0  0  0  0  0  0  0  0  0  0  0
  -22.4966   -2.9649  -25.3948 C   0  0  0  0  0  0  0  0  0  0  0  0
  -20.5240   -4.1251  -32.1991 C   0  0  0  0  0  0  0  0  0  0  0  0
  -26.7964   -6.1050  -23.1299 C   0  0  0  0  0  0  0  0  0  0  0  0
  -20.8444   -4.9532  -27.9231 N   0  0  0  0  0  0  0  0  0  0  0  0
  -21.6124   -3.7813  -26.1979 N   0  0  0  0  0  0  0  0  0  0  0  0
  -23.0295   -3.9078  -28.0989 N   0  0  0  0  0  0  0  0  0  0  0  0
  -21.9905   -3.7879  -32.2198 N   0  3  0  0  0  0  0  0  0  0  0  0
  -19.3140   -6.4359  -31.0245 O   0  0  0  0  0  0  0  0  0  0  0  0
  -20.4690   -6.5967  -36.4129 O   0  0  0  0  0  0  0  0  0  0  0  0
  -16.7038   -6.0226  -25.5764 F   0  0  0  0  0  0  0  0  0  0  0  0
  -17.6506   -4.5888  -23.4724 F   0  0  0  0  0  0  0  0  0  0  0  0
  -28.0399   -5.6761  -23.4982 F   0  0  0  0  0  0  0  0  0  0  0  0
  -26.7559   -7.4240  -23.4823 F   0  0  0  0  0  0  0  0  0  0  0  0
  -26.7936   -6.0904  -21.7651 F   0  0  0  0  0  0  0  0  0  0  0  0
  -25.1765   -2.6226  -25.7472 H   0  0  0  0  0  0  0  0  0  0  0  0
  -22.2949   -5.1161  -23.7382 H   0  0  0  0  0  0  0  0  0  0  0  0
  -27.0077   -3.9598  -24.7808 H   0  0  0  0  0  0  0  0  0  0  0  0
  -24.1272   -6.4560  -22.7741 H   0  0  0  0  0  0  0  0  0  0  0  0
  -19.3586   -8.5449  -35.0300 H   0  0  0  0  0  0  0  0  0  0  0  0
  -18.8414   -8.4654  -32.6162 H   0  0  0  0  0  0  0  0  0  0  0  0
  -20.9467   -4.5539  -34.8318 H   0  0  0  0  0  0  0  0  0  0  0  0
  -18.2727   -6.1603  -27.6695 H   0  0  0  0  0  0  0  0  0  0  0  0
  -20.0262   -3.5121  -23.7907 H   0  0  0  0  0  0  0  0  0  0  0  0
  -23.5485   -5.8276  -29.9371 H   0  0  0  0  0  0  0  0  0  0  0  0
  -21.8405   -5.4328  -29.9433 H   0  0  0  0  0  0  0  0  0  0  0  0
  -21.2299   -2.7672  -29.7120 H   0  0  0  0  0  0  0  0  0  0  0  0
  -22.5976   -1.6784  -29.5752 H   0  0  0  0  0  0  0  0  0  0  0  0
  -22.5531   -5.8310  -32.2781 H   0  0  0  0  0  0  0  0  0  0  0  0
  -23.9048   -4.6780  -32.0825 H   0  0  0  0  0  0  0  0  0  0  0  0
  -23.3377   -2.1954  -31.8661 H   0  0  0  0  0  0  0  0  0  0  0  0
  -21.6153   -1.7213  -31.9232 H   0  0  0  0  0  0  0  0  0  0  0  0
  -24.2082   -3.4955  -29.7439 H   0  0  0  0  0  0  0  0  0  0  0  0
  -20.4142   -7.6990  -38.1604 H   0  0  0  0  0  0  0  0  0  0  0  0
  -20.6656   -8.6398  -36.6571 H   0  0  0  0  0  0  0  0  0  0  0  0
  -19.0586   -7.9642  -37.0329 H   0  0  0  0  0  0  0  0  0  0  0  0
  -22.8859   -2.1572  -26.0264 H   0  0  0  0  0  0  0  0  0  0  0  0
  -21.9006   -2.4853  -24.6089 H   0  0  0  0  0  0  0  0  0  0  0  0
  -20.2409   -4.2332  -31.1465 H   0  0  0  0  0  0  0  0  0  0  0  0
  -19.9950   -3.2533  -32.5990 H   0  0  0  0  0  0  0  0  0  0  0  0
  -23.8579   -3.7657  -27.5381 H   0  0  0  0  0  0  0  0  0  0  0  0
  -22.2252   -3.6453  -33.2453 H   0  0  0  0  0  0  0  0  0  0  0  0
  -18.9102   -7.2749  -30.7527 H   0  0  0  0  0  0  0  0  0  0  0  0
  1  3  1  0  0  0  0
  1 10  2  0  0  0  0
  2  4  2  0  0  0  0
  2 10  1  0  0  0  0
  3 11  2  0  0  0  0
  4 11  1  0  0  0  0
  5  6  1  0  0  0  0
  5 15  2  0  0  0  0
  6 16  2  0  0  0  0
  7 12  2  0  0  0  0
  7 15  1  0  0  0  0
  8 13  2  0  0  0  0
  8 17  1  0  0  0  0
  9 14  2  0  0  0  0
  9 18  1  0  0  0  0
 10 26  1  0  0  0  0
 11 28  1  0  0  0  0
 12 16  1  0  0  0  0
 12 27  1  0  0  0  0
 13 14  1  0  0  0  0
 13 29  1  0  0  0  0
 14 30  1  0  0  0  0
 15 34  1  0  0  0  0
 16 33  1  0  0  0  0
 17 18  2  0  0  0  0
 17 35  1  0  0  0  0
 18 36  1  0  0  0  0
 19 29  2  0  0  0  0
 19 30  1  0  0  0  0
 19 31  1  0  0  0  0
 20 22  1  0  0  0  0
 20 24  1  0  0  0  0
 21 23  1  0  0  0  0
 21 24  1  0  0  0  0
 22 32  1  0  0  0  0
 23 32  1  0  0  0  0
 24 31  1  0  0  0  0
 25 34  1  0  0  0  0
 26 30  1  0  0  0  0
 27 32  1  0  0  0  0
 28 37  1  0  0  0  0
 28 38  1  0  0  0  0
 28 39  1  0  0  0  0
  1 40  1  0  0  0  0
  2 41  1  0  0  0  0
  3 42  1  0  0  0  0
  4 43  1  0  0  0  0
  5 44  1  0  0  0  0
  6 45  1  0  0  0  0
  7 46  1  0  0  0  0
  8 47  1  0  0  0  0
  9 48  1  0  0  0  0
 20 49  1  0  0  0  0
 20 50  1  0  0  0  0
 21 51  1  0  0  0  0
 21 52  1  0  0  0  0
 22 53  1  0  0  0  0
 22 54  1  0  0  0  0
 23 55  1  0  0  0  0
 23 56  1  0  0  0  0
 24 57  1  0  0  0  0
 25 58  1  0  0  0  0
 25 59  1  0  0  0  0
 25 60  1  0  0  0  0
 26 61  1  0  0  0  0
 26 62  1  0  0  0  0
 27 63  1  0  0  0  0
 27 64  1  0  0  0  0
 31 65  1  0  0  0  0
 32 66  1  0  0  0  0
 33 67  1  0  0  0  0
M  CHG  1  32   1
M  END
> <SMILES>
COc1ccc(c(c1)CN1CCC(CC1)Nc1nc2cc(c(cc2n1Cc1ccc(cc1)C(F)(F)F)F)F)O

> <FORMATTED_ID>
H3D-012702

> <MOLFORMULA>
C28H27F5N4O2

> <Exact Mass>
546.21

> <XLogP>
7.49

> <TPSA_NOPS>
62.5

> <s_m_source_file>
ligprep_h3d.sdf

> <i_m_source_file_index>
2920

> <i_lp_mmshare_version>
55123

> <i_f3d_flags>
0

> <s_epik_input>
W0NIM11PYzFbY0hdW2NIXWMoW09IXSljKFtjSF0xKVtDSDJdTjJbQ0gyXVtDSDJdW0NIXShbQ0gyXVtDSDJdMilbTkhdYyhuMyluKGMoYzM0KVtjSF1jKEYpYyhGKVtjSF00KVtDSDJdYzVbY0hdW2NIXWMoQyhGKShGKUYpW2NIXVtjSF01

> <s_epik_cmdline>
J2VwaWtfcHl0aG9uJywgJy1waHQnLCAnMC41JywgJy1waCcsICc3LjUnLCAnLXRuJywgJzgnLCAnLW1hJywgJzUwMCcsICctaW1hZScsICc8aW5maWxlLm1hZT4nLCAnLW9tYWUnLCAnPG91dGZpbGUubWFlPic=

> <r_lp_tautomer_probability>
1

> <r_epik_Ionization_Penalty>
0.576901

> <r_epik_Ionization_Penalty_Charging>
0.482396

> <r_epik_Ionization_Penalty_Neutral>
0.0945043

> <r_epik_State_Penalty>
0.487483

> <r_epik_Charging_Adjusted_Penalty>
0.969879

> <i_epik_Tot_Q>
1

> <i_epik_Tot_abs_Q>
1

> <s_lp_Force_Field>
S-OPLS

> <r_lp_Energy>
43.7274

> <b_lp_Chiralities_Consistent>
1

> <s_lp_Variant>
ligprep_h3d.sdf:2920-2

> <ROCS_ShapeQuery>
_7L13

> <ROCS_TanimotoCombo>
0.736 

> <ROCS_ShapeTanimoto>
0.588 

> <ROCS_ColorTanimoto>
0.148 

> <ROCS_RefTversky>
0.768 

> <ROCS_RefColorTversky>
0.296 

> <ROCS_RefTverskyCombo>
1.065 

> <ROCS_FitTversky>
0.714 

> <ROCS_FitColorTversky>
0.228 

> <ROCS_FitTverskyCombo>
0.943 

> <ROCS_ColorScore>
-2.711

> <ROCS_Overlap>
1281.412

> <ROCS_Rank>
554                 

$$$$
ligprep_h3d.sdf:6067_990
  -OEChem-08212117123D

 48 53  0     0  0  0  0  0  0999 V2000
  -18.6766   -7.1019  -34.3207 C   0  0  0  0  0  0  0  0  0  0  0  0
  -19.4396   -7.3027  -33.1705 C   0  0  0  0  0  0  0  0  0  0  0  0
  -19.0372   -6.1099  -35.2326 C   0  0  0  0  0  0  0  0  0  0  0  0
  -23.4905   -2.9269  -30.7776 C   0  0  0  0  0  0  0  0  0  0  0  0
  -21.4020   -4.1229  -23.3856 C   0  0  0  0  0  0  0  0  0  0  0  0
  -22.5559   -3.2114  -29.7820 C   0  0  0  0  0  0  0  0  0  0  0  0
  -22.6073   -3.9595  -22.6988 C   0  0  0  0  0  0  0  0  0  0  0  0
  -20.5634   -6.5115  -32.9321 C   0  0  0  0  0  0  0  0  0  0  0  0
  -20.1610   -5.3187  -34.9942 C   0  0  0  0  0  0  0  0  0  0  0  0
  -23.3174   -3.4388  -32.0635 C   0  0  0  0  0  0  0  0  0  0  0  0
  -22.5840   -4.9321  -25.3544 C   0  0  0  0  0  0  0  0  0  0  0  0
  -21.2749   -4.5196  -31.3584 C   0  0  0  0  0  0  0  0  0  0  0  0
  -21.3904   -4.6063  -24.7059 C   0  0  0  0  0  0  0  0  0  0  0  0
  -21.4481   -4.0077  -30.0724 C   0  0  0  0  0  0  0  0  0  0  0  0
  -23.7718   -4.2884  -23.3618 C   0  0  0  0  0  0  0  0  0  0  0  0
  -23.7605   -4.7616  -24.6540 C   0  0  0  0  0  0  0  0  0  0  0  0
  -20.9241   -5.5194  -33.8440 C   0  0  0  0  0  0  0  0  0  0  0  0
  -22.2096   -4.2352  -32.3539 C   0  0  0  0  0  0  0  0  0  0  0  0
  -20.1335   -4.7661  -25.3969 C   0  0  0  0  0  0  0  0  0  0  0  0
  -18.6245   -4.8776  -26.9715 C   0  0  0  0  0  0  0  0  0  0  0  0
  -18.1696   -4.8178  -28.3151 C   0  0  0  0  0  0  0  0  0  0  0  0
  -19.0483   -4.5457  -29.2996 C   0  0  0  0  0  0  0  0  0  0  0  0
  -20.8906   -4.3674  -27.7508 C   0  0  0  0  0  0  0  0  0  0  0  0
  -20.4737   -4.3046  -29.0344 C   0  0  0  0  0  0  0  0  0  0  0  0
  -25.8127   -4.6630  -23.9753 C   0  0  0  0  0  0  0  0  0  0  0  0
  -18.9810   -5.0435  -24.8291 N   0  0  0  0  0  0  0  0  0  0  0  0
  -18.0261   -5.1142  -25.8236 N   0  0  0  0  0  0  0  0  0  0  0  0
  -19.9709   -4.6489  -26.7479 N   0  0  0  0  0  0  0  0  0  0  0  0
  -25.0319   -4.1949  -22.8566 O   0  0  0  0  0  0  0  0  0  0  0  0
  -25.0121   -5.0238  -25.1195 O   0  0  0  0  0  0  0  0  0  0  0  0
  -22.0405   -4.7347  -33.6087 O   0  0  0  0  0  0  0  0  0  0  0  0
  -17.8013   -7.7175  -34.5063 H   0  0  0  0  0  0  0  0  0  0  0  0
  -19.1591   -8.0752  -32.4604 H   0  0  0  0  0  0  0  0  0  0  0  0
  -18.4425   -5.9541  -36.1280 H   0  0  0  0  0  0  0  0  0  0  0  0
  -24.3532   -2.3070  -30.5514 H   0  0  0  0  0  0  0  0  0  0  0  0
  -20.4712   -3.8684  -22.8830 H   0  0  0  0  0  0  0  0  0  0  0  0
  -22.7043   -2.8049  -28.7842 H   0  0  0  0  0  0  0  0  0  0  0  0
  -22.6208   -3.5855  -21.6814 H   0  0  0  0  0  0  0  0  0  0  0  0
  -21.1544   -6.6739  -32.0349 H   0  0  0  0  0  0  0  0  0  0  0  0
  -20.4382   -4.5486  -35.7090 H   0  0  0  0  0  0  0  0  0  0  0  0
  -24.0488   -3.2135  -32.8350 H   0  0  0  0  0  0  0  0  0  0  0  0
  -22.5956   -5.3071  -26.3729 H   0  0  0  0  0  0  0  0  0  0  0  0
  -20.4138   -5.1416  -31.5943 H   0  0  0  0  0  0  0  0  0  0  0  0
  -17.1223   -4.9918  -28.5343 H   0  0  0  0  0  0  0  0  0  0  0  0
  -18.7112   -4.4978  -30.3307 H   0  0  0  0  0  0  0  0  0  0  0  0
  -21.9220   -4.2056  -27.4563 H   0  0  0  0  0  0  0  0  0  0  0  0
  -26.3894   -5.5402  -23.6591 H   0  0  0  0  0  0  0  0  0  0  0  0
  -26.5107   -3.8716  -24.2714 H   0  0  0  0  0  0  0  0  0  0  0  0
  1  2  2  0  0  0  0
  1  3  1  0  0  0  0
  2  8  1  0  0  0  0
  3  9  2  0  0  0  0
  4  6  1  0  0  0  0
  4 10  2  0  0  0  0
  5  7  1  0  0  0  0
  5 13  2  0  0  0  0
  6 14  2  0  0  0  0
  7 15  2  0  0  0  0
  8 17  2  0  0  0  0
  9 17  1  0  0  0  0
 10 18  1  0  0  0  0
 11 13  1  0  0  0  0
 11 16  2  0  0  0  0
 12 14  1  0  0  0  0
 12 18  2  0  0  0  0
 13 19  1  0  0  0  0
 14 24  1  0  0  0  0
 15 16  1  0  0  0  0
 15 29  1  0  0  0  0
 16 30  1  0  0  0  0
 17 31  1  0  0  0  0
 18 31  1  0  0  0  0
 19 26  2  0  0  0  0
 19 28  1  0  0  0  0
 20 21  1  0  0  0  0
 20 27  2  0  0  0  0
 20 28  1  0  0  0  0
 21 22  2  0  0  0  0
 22 24  1  0  0  0  0
 23 24  2  0  0  0  0
 23 28  1  0  0  0  0
 25 29  1  0  0  0  0
 25 30  1  0  0  0  0
 26 27  1  0  0  0  0
  1 32  1  0  0  0  0
  2 33  1  0  0  0  0
  3 34  1  0  0  0  0
  4 35  1  0  0  0  0
  5 36  1  0  0  0  0
  6 37  1  0  0  0  0
  7 38  1  0  0  0  0
  8 39  1  0  0  0  0
  9 40  1  0  0  0  0
 10 41  1  0  0  0  0
 11 42  1  0  0  0  0
 12 43  1  0  0  0  0
 21 44  1  0  0  0  0
 22 45  1  0  0  0  0
 23 46  1  0  0  0  0
 25 47  1  0  0  0  0
 25 48  1  0  0  0  0
M  END
> <SMILES>
C1Oc2ccc(cc2O1)-c1nnc2ccc(cn12)-c1cccc(c1)Oc1ccccc1

> <FORMATTED_ID>
H3D-000504

> <MOLFORMULA>
C25H17N3O3

> <Exact Mass>
407.13

> <XLogP>
6.7

> <TPSA_NOPS>
57.9

> <s_m_source_file>
ligprep_h3d.sdf

> <i_m_source_file_index>
6067

> <i_lp_mmshare_version>
55123

> <i_f3d_flags>
0

> <s_epik_input>
TzFbQ0gyXU9jKGMxMilbY0hdYyhbY0hdW2NIXTIpLWMobm4zKW4oYzM0KVtjSF1jKFtjSF1bY0hdNCktYzVbY0hdW2NIXVtjSF1jKFtjSF01KU9jNltjSF1bY0hdW2NIXVtjSF1bY0hdNg==

> <s_epik_cmdline>
J2VwaWtfcHl0aG9uJywgJy1waHQnLCAnMC41JywgJy1waCcsICc3LjUnLCAnLXRuJywgJzgnLCAnLW1hJywgJzUwMCcsICctaW1hZScsICc8aW5maWxlLm1hZT4nLCAnLW9tYWUnLCAnPG91dGZpbGUubWFlPic=

> <r_lp_tautomer_probability>
1

> <r_epik_Ionization_Penalty>
6.14767e-06

> <r_epik_Ionization_Penalty_Charging>
0

> <r_epik_Ionization_Penalty_Neutral>
6.14767e-06

> <r_epik_State_Penalty>
-0

> <r_epik_Charging_Adjusted_Penalty>
0

> <i_epik_Tot_Q>
0

> <i_epik_Tot_abs_Q>
0

> <s_epik_Chemistry_Notes>
This compound contains an acetal/aminal-like group ( X-CH(R)-Y where X, Y are N, S, or O) that may be acid/base labile, releasing an aldehyde.

> <s_lp_Force_Field>
S-OPLS

> <r_lp_Energy>
64.3618

> <b_lp_Chiralities_Consistent>
1

> <s_lp_Variant>
ligprep_h3d.sdf:6067-1

> <ROCS_ShapeQuery>
_7L13

> <ROCS_TanimotoCombo>
0.786 

> <ROCS_ShapeTanimoto>
0.674 

> <ROCS_ColorTanimoto>
0.112 

> <ROCS_RefTversky>
0.768 

> <ROCS_RefColorTversky>
0.224 

> <ROCS_RefTverskyCombo>
0.993 

> <ROCS_FitTversky>
0.846 

> <ROCS_FitColorTversky>
0.182 

> <ROCS_FitTverskyCombo>
1.028 

> <ROCS_ColorScore>
-2.045

> <ROCS_Overlap>
1269.534

> <ROCS_Rank>
555                 

$$$$
ligprep_h3d.sdf:1298_44
  -OEChem-08212117123D

 55 60  0     1  0  0  0  0  0999 V2000
  -22.4442   -2.9225  -22.0380 C   0  0  0  0  0  0  0  0  0  0  0  0
  -20.9234   -5.1107  -29.5393 C   0  0  0  0  0  0  0  0  0  0  0  0
  -21.7197   -4.3611  -30.4075 C   0  0  0  0  0  0  0  0  0  0  0  0
  -21.0510   -4.8997  -28.1451 C   0  0  0  0  0  0  0  0  0  0  0  0
  -21.9820   -3.9891  -27.5955 C   0  0  0  0  0  0  0  0  0  0  0  0
  -22.6007   -3.4499  -29.8676 C   0  0  0  0  0  0  0  0  0  0  0  0
  -22.7626   -3.2297  -28.4998 C   0  0  0  0  0  0  0  0  0  0  0  0
  -21.9136   -4.2329  -31.7954 C   0  0  0  0  0  0  0  0  0  0  0  0
  -21.2126   -4.9932  -32.8460 C   0  0  0  0  0  0  0  0  0  0  0  0
  -20.4815   -6.5601  -34.0403 C   0  0  0  0  0  0  0  0  0  0  0  0
  -18.9075   -3.7754  -26.2811 C   0  0  0  0  0  0  0  0  0  0  0  0
  -19.1496   -6.0447  -25.0800 C   0  0  0  0  0  0  0  0  0  0  0  0
  -16.9349   -5.2253  -25.8574 C   0  0  0  0  0  0  0  0  0  0  0  0
  -20.1684   -5.7071  -27.2337 C   0  0  0  0  0  0  0  0  0  0  0  0
  -23.1693   -2.9992  -25.6636 C   0  0  0  0  0  0  0  0  0  0  0  0
  -21.1627   -4.4808  -25.2514 C   0  0  2  0  0  0  0  0  0  0  0  0
  -23.5326   -3.3379  -24.2196 C   0  0  1  0  0  0  0  0  0  0  0  0
  -21.0003   -3.5136  -24.0306 C   0  0  2  0  0  0  0  0  0  0  0  0
  -19.8302   -4.9524  -25.9233 C   0  0  0  0  0  0  0  0  0  0  0  0
  -20.2958   -7.9537  -34.4636 C   0  0  0  0  0  0  0  0  0  0  0  0
  -24.3244   -4.6392  -24.0836 C   0  0  0  0  0  0  0  0  0  0  0  0
  -19.9333   -3.9440  -23.0157 C   0  0  0  0  0  0  0  0  0  0  0  0
  -22.5378   -2.5413  -20.9465 N   0  0  0  0  0  0  0  0  0  0  0  0
  -22.8376   -3.3151  -32.0956 N   0  0  0  0  0  0  0  0  0  0  0  0
  -20.4799   -4.4253  -33.7751 N   0  0  0  0  0  0  0  0  0  0  0  0
  -19.9991   -5.4560  -34.5609 N   0  0  0  0  0  0  0  0  0  0  0  0
  -17.5575   -4.0835  -26.3416 N   0  0  0  0  0  0  0  0  0  0  0  0
  -17.7734   -6.1322  -25.2247 N   0  0  0  0  0  0  0  0  0  0  0  0
  -22.3350   -3.3675  -23.3126 N   0  0  0  0  0  0  0  0  0  0  0  0
  -22.1039   -3.8454  -26.2097 N   0  0  3  0  0  0  0  0  0  0  0  0
  -19.3244   -2.6509  -26.5584 O   0  0  0  0  0  0  0  0  0  0  0  0
  -19.7795   -6.8475  -24.3903 O   0  0  0  0  0  0  0  0  0  0  0  0
  -15.7186   -5.4018  -25.9460 O   0  0  0  0  0  0  0  0  0  0  0  0
  -23.2698   -2.8190  -30.8712 O   0  0  0  0  0  0  0  0  0  0  0  0
  -21.2637   -6.3497  -32.9463 O   0  0  0  0  0  0  0  0  0  0  0  0
  -23.7079   -2.3649  -28.1069 F   0  0  0  0  0  0  0  0  0  0  0  0
  -20.2212   -5.8438  -29.9235 H   0  0  0  0  0  0  0  0  0  0  0  0
  -20.7028   -6.6293  -27.0102 H   0  0  0  0  0  0  0  0  0  0  0  0
  -19.2534   -5.9690  -27.7618 H   0  0  0  0  0  0  0  0  0  0  0  0
  -24.0410   -3.0351  -26.3398 H   0  0  0  0  0  0  0  0  0  0  0  0
  -22.8709   -1.9401  -25.6213 H   0  0  0  0  0  0  0  0  0  0  0  0
  -21.6903   -5.3638  -24.8544 H   0  0  0  0  0  0  0  0  0  0  0  0
  -24.1712   -2.5097  -23.8388 H   0  0  0  0  0  0  0  0  0  0  0  0
  -20.7236   -2.5353  -24.3772 H   0  0  0  0  0  0  0  0  0  0  0  0
  -19.4185   -8.4126  -33.9727 H   0  0  0  0  0  0  0  0  0  0  0  0
  -21.1723   -8.5863  -34.2279 H   0  0  0  0  0  0  0  0  0  0  0  0
  -20.1468   -8.0461  -35.5561 H   0  0  0  0  0  0  0  0  0  0  0  0
  -23.7269   -5.4722  -24.4483 H   0  0  0  0  0  0  0  0  0  0  0  0
  -25.2409   -4.5736  -24.6662 H   0  0  0  0  0  0  0  0  0  0  0  0
  -24.5753   -4.8086  -23.0385 H   0  0  0  0  0  0  0  0  0  0  0  0
  -20.1709   -4.9341  -22.6340 H   0  0  0  0  0  0  0  0  0  0  0  0
  -19.9084   -3.2366  -22.1902 H   0  0  0  0  0  0  0  0  0  0  0  0
  -18.9592   -3.9684  -23.4984 H   0  0  0  0  0  0  0  0  0  0  0  0
  -16.9583   -3.3994  -26.7889 H   0  0  0  0  0  0  0  0  0  0  0  0
  -17.3291   -6.9530  -24.8221 H   0  0  0  0  0  0  0  0  0  0  0  0
  1 23  3  0  0  0  0
  1 29  1  0  0  0  0
  2  3  2  0  0  0  0
  2  4  1  0  0  0  0
  3  6  1  0  0  0  0
  3  8  1  0  0  0  0
  4  5  2  0  0  0  0
  4 14  1  0  0  0  0
  5  7  1  0  0  0  0
  5 30  1  0  0  0  0
  6  7  2  0  0  0  0
  6 34  1  0  0  0  0
  7 36  1  0  0  0  0
  8  9  1  0  0  0  0
  8 24  2  0  0  0  0
  9 25  2  0  0  0  0
  9 35  1  0  0  0  0
 10 20  1  0  0  0  0
 10 26  2  0  0  0  0
 10 35  1  0  0  0  0
 11 19  1  0  0  0  0
 11 27  1  0  0  0  0
 11 31  2  0  0  0  0
 12 19  1  0  0  0  0
 12 28  1  0  0  0  0
 12 32  2  0  0  0  0
 13 27  1  0  0  0  0
 13 28  1  0  0  0  0
 13 33  2  0  0  0  0
 14 19  1  0  0  0  0
 15 17  1  0  0  0  0
 15 30  1  0  0  0  0
 16 18  1  0  0  0  0
 16 19  1  0  0  0  0
 16 30  1  0  0  0  0
 17 21  1  0  0  0  0
 17 29  1  0  0  0  0
 18 22  1  0  0  0  0
 18 29  1  0  0  0  0
 24 34  1  0  0  0  0
 25 26  1  0  0  0  0
  2 37  1  0  0  0  0
 14 38  1  0  0  0  0
 14 39  1  0  0  0  0
 15 40  1  0  0  0  0
 15 41  1  0  0  0  0
 16 42  1  0  0  0  0
 17 43  1  0  0  0  0
 18 44  1  0  0  0  0
 20 45  1  0  0  0  0
 20 46  1  0  0  0  0
 20 47  1  0  0  0  0
 21 48  1  0  0  0  0
 21 49  1  0  0  0  0
 21 50  1  0  0  0  0
 22 51  1  0  0  0  0
 22 52  1  0  0  0  0
 22 53  1  0  0  0  0
 27 54  1  0  0  0  0
 28 55  1  0  0  0  0
M  END
> <SMILES>
C[C@@H]1CN2[C@H]([C@H](C)N1C#N)C1(Cc3cc4c(noc4c(c32)F)-c2nnc(o2)C)C(=O)NC(=O)NC1=O

> <FORMATTED_ID>
H3D-008729

> <MOLFORMULA>
C22H19FN8O5

> <Exact Mass>
494.15

> <XLogP>
0.88

> <TPSA_NOPS>
171.1

> <s_m_source_file>
ligprep_h3d.sdf

> <i_m_source_file_index>
1298

> <i_lp_mmshare_version>
55123

> <i_f3d_flags>
0

> <s_epik_input>
Tz1DMVtOSF1DKD1PKVtOSF1DKD1PKUMxMltDQEBIXTNOKFtDSDJdW0NAQEhdKFtDSDNdKU4oQyNOKVtDQEhdM1tDSDNdKWM0YyhbQ0gyXTIpW2NIXWM1YyhjNEYpb25jNS1jNm5uYyhvNilbQ0gzXQ==

> <s_epik_cmdline>
J2VwaWtfcHl0aG9uJywgJy1waHQnLCAnMC41JywgJy1waCcsICc3LjUnLCAnLXRuJywgJzgnLCAnLW1hJywgJzUwMCcsICctaW1hZScsICc8aW5maWxlLm1hZT4nLCAnLW9tYWUnLCAnPG91dGZpbGUubWFlPic=

> <r_lp_tautomer_probability>
1

> <r_epik_Ionization_Penalty>
0.218697

> <r_epik_Ionization_Penalty_Charging>
0

> <r_epik_Ionization_Penalty_Neutral>
0.218697

> <r_epik_State_Penalty>
0.208986

> <r_epik_Charging_Adjusted_Penalty>
0.208986

> <i_epik_Tot_Q>
0

> <i_epik_Tot_abs_Q>
0

> <s_lp_Force_Field>
S-OPLS

> <r_lp_Energy>
50.2467

> <b_lp_Chiralities_Consistent>
1

> <s_lp_Variant>
ligprep_h3d.sdf:1298-1

> <ROCS_ShapeQuery>
_7L13

> <ROCS_TanimotoCombo>
0.731 

> <ROCS_ShapeTanimoto>
0.608 

> <ROCS_ColorTanimoto>
0.123 

> <ROCS_RefTversky>
0.768 

> <ROCS_RefColorTversky>
0.296 

> <ROCS_RefTverskyCombo>
1.064 

> <ROCS_FitTversky>
0.745 

> <ROCS_FitColorTversky>
0.174 

> <ROCS_FitTverskyCombo>
0.918 

> <ROCS_ColorScore>
-2.772

> <ROCS_Overlap>
1278.129

> <ROCS_Rank>
556                 

$$$$
ligprep_h3d.sdf:785_1277
  -OEChem-08212117123D

 75 80  0     0  0  0  0  0  0999 V2000
  -19.8139   -4.1709  -32.6225 C   0  0  0  0  0  0  0  0  0  0  0  0
  -20.2472   -6.5393  -32.4230 C   0  0  0  0  0  0  0  0  0  0  0  0
  -19.1602   -4.3925  -33.8345 C   0  0  0  0  0  0  0  0  0  0  0  0
  -19.5935   -6.7610  -33.6351 C   0  0  0  0  0  0  0  0  0  0  0  0
  -18.2911   -6.2382  -26.5594 C   0  0  0  0  0  0  0  0  0  0  0  0
  -23.0705   -4.5382  -29.4366 C   0  0  0  0  0  0  0  0  0  0  0  0
  -16.9459   -5.8492  -26.4152 C   0  0  0  0  0  0  0  0  0  0  0  0
  -21.0139   -4.8128  -28.2396 C   0  0  0  0  0  0  0  0  0  0  0  0
  -20.3573   -5.2443  -31.9166 C   0  0  0  0  0  0  0  0  0  0  0  0
  -21.0383   -5.0133  -30.6536 C   0  0  0  0  0  0  0  0  0  0  0  0
  -19.0500   -5.6876  -34.3409 C   0  0  0  0  0  0  0  0  0  0  0  0
  -22.4059   -4.7624  -30.6458 C   0  0  0  0  0  0  0  0  0  0  0  0
  -20.3383   -5.0391  -29.4514 C   0  0  0  0  0  0  0  0  0  0  0  0
  -22.3950   -4.5585  -28.2188 C   0  0  0  0  0  0  0  0  0  0  0  0
  -20.3735   -4.8252  -27.0037 C   0  0  0  0  0  0  0  0  0  0  0  0
  -18.9664   -5.0631  -26.7822 C   0  0  0  0  0  0  0  0  0  0  0  0
  -22.3179   -4.3790  -25.9346 C   0  0  0  0  0  0  0  0  0  0  0  0
  -24.4194   -4.5497  -24.6699 C   0  0  0  0  0  0  0  0  0  0  0  0
  -22.2809   -4.1703  -23.4652 C   0  0  0  0  0  0  0  0  0  0  0  0
  -25.1377   -3.7893  -23.5528 C   0  0  0  0  0  0  0  0  0  0  0  0
  -23.0686   -3.4230  -22.3861 C   0  0  0  0  0  0  0  0  0  0  0  0
  -17.5908   -7.6385  -37.1550 C   0  0  0  0  0  0  0  0  0  0  0  0
  -19.9494   -7.3081  -36.7990 C   0  0  0  0  0  0  0  0  0  0  0  0
  -17.8984   -9.0246  -37.7145 C   0  0  0  0  0  0  0  0  0  0  0  0
  -20.2012   -8.7024  -37.3657 C   0  0  0  0  0  0  0  0  0  0  0  0
  -23.2057   -4.7240  -31.9092 C   0  0  0  0  0  0  0  0  0  0  0  0
  -18.8640   -5.3143  -29.5240 C   0  0  0  0  0  0  0  0  0  0  0  0
  -18.2304   -2.6618  -26.9443 C   0  0  0  0  0  0  0  0  0  0  0  0
  -25.1600   -3.2611  -21.2031 C   0  0  0  0  0  0  0  0  0  0  0  0
  -18.3509   -5.9246  -35.6367 C   0  0  0  0  0  0  0  0  0  0  0  0
  -16.7748   -4.5300  -26.5365 N   0  0  0  0  0  0  0  0  0  0  0  0
  -23.0511   -4.3409  -27.0656 N   0  0  0  0  0  0  0  0  0  0  0  0
  -20.9994   -4.6112  -25.8311 N   0  0  0  0  0  0  0  0  0  0  0  0
  -18.0214   -4.0800  -26.7592 N   0  0  0  0  0  0  0  0  0  0  0  0
  -23.0076   -4.1520  -24.7384 N   0  0  0  0  0  0  0  0  0  0  0  0
  -24.4355   -3.9461  -22.2730 N   0  0  0  0  0  0  0  0  0  0  0  0
  -18.6189   -7.2557  -36.1773 N   0  0  0  0  0  0  0  0  0  0  0  0
  -19.1926   -9.0416  -38.3181 O   0  0  0  0  0  0  0  0  0  0  0  0
  -19.8910   -3.1556  -32.2406 H   0  0  0  0  0  0  0  0  0  0  0  0
  -20.6662   -7.3863  -31.8848 H   0  0  0  0  0  0  0  0  0  0  0  0
  -18.7388   -3.5505  -34.3771 H   0  0  0  0  0  0  0  0  0  0  0  0
  -19.5128   -7.7733  -34.0225 H   0  0  0  0  0  0  0  0  0  0  0  0
  -18.7067   -7.2344  -26.5076 H   0  0  0  0  0  0  0  0  0  0  0  0
  -24.1423   -4.3429  -29.4462 H   0  0  0  0  0  0  0  0  0  0  0  0
  -16.0833   -6.4720  -26.2269 H   0  0  0  0  0  0  0  0  0  0  0  0
  -24.4995   -5.6260  -24.4745 H   0  0  0  0  0  0  0  0  0  0  0  0
  -24.9082   -4.3487  -25.6322 H   0  0  0  0  0  0  0  0  0  0  0  0
  -21.2933   -3.7068  -23.5938 H   0  0  0  0  0  0  0  0  0  0  0  0
  -22.1215   -5.2044  -23.1344 H   0  0  0  0  0  0  0  0  0  0  0  0
  -25.1699   -2.7287  -23.8305 H   0  0  0  0  0  0  0  0  0  0  0  0
  -26.1771   -4.1360  -23.4785 H   0  0  0  0  0  0  0  0  0  0  0  0
  -22.5376   -3.4917  -21.4268 H   0  0  0  0  0  0  0  0  0  0  0  0
  -23.0992   -2.3617  -22.6624 H   0  0  0  0  0  0  0  0  0  0  0  0
  -16.6063   -7.6586  -36.6791 H   0  0  0  0  0  0  0  0  0  0  0  0
  -17.5631   -6.9138  -37.9762 H   0  0  0  0  0  0  0  0  0  0  0  0
  -20.0184   -6.5700  -37.6057 H   0  0  0  0  0  0  0  0  0  0  0  0
  -20.7217   -7.0830  -36.0579 H   0  0  0  0  0  0  0  0  0  0  0  0
  -17.1671   -9.2846  -38.4865 H   0  0  0  0  0  0  0  0  0  0  0  0
  -17.8473   -9.7951  -36.9356 H   0  0  0  0  0  0  0  0  0  0  0  0
  -20.2287   -9.4626  -36.5754 H   0  0  0  0  0  0  0  0  0  0  0  0
  -21.1666   -8.7267  -37.8812 H   0  0  0  0  0  0  0  0  0  0  0  0
  -23.2238   -3.7063  -32.3139 H   0  0  0  0  0  0  0  0  0  0  0  0
  -22.7814   -5.3953  -32.6648 H   0  0  0  0  0  0  0  0  0  0  0  0
  -24.2372   -5.0505  -31.7326 H   0  0  0  0  0  0  0  0  0  0  0  0
  -18.6828   -6.3905  -29.4562 H   0  0  0  0  0  0  0  0  0  0  0  0
  -18.4450   -4.9411  -30.4633 H   0  0  0  0  0  0  0  0  0  0  0  0
  -18.3347   -4.8119  -28.7087 H   0  0  0  0  0  0  0  0  0  0  0  0
  -18.4213   -2.2182  -25.9635 H   0  0  0  0  0  0  0  0  0  0  0  0
  -17.3394   -2.2185  -27.3975 H   0  0  0  0  0  0  0  0  0  0  0  0
  -19.0852   -2.5061  -27.6084 H   0  0  0  0  0  0  0  0  0  0  0  0
  -24.6200   -3.3893  -20.2534 H   0  0  0  0  0  0  0  0  0  0  0  0
  -25.2362   -2.1896  -21.4397 H   0  0  0  0  0  0  0  0  0  0  0  0
  -26.1692   -3.6891  -21.1116 H   0  0  0  0  0  0  0  0  0  0  0  0
  -18.6621   -5.1920  -36.3945 H   0  0  0  0  0  0  0  0  0  0  0  0
  -17.2616   -5.8277  -35.5306 H   0  0  0  0  0  0  0  0  0  0  0  0
  1  3  1  0  0  0  0
  1  9  2  0  0  0  0
  2  4  2  0  0  0  0
  2  9  1  0  0  0  0
  3 11  2  0  0  0  0
  4 11  1  0  0  0  0
  5  7  1  0  0  0  0
  5 16  2  0  0  0  0
  6 12  2  0  0  0  0
  6 14  1  0  0  0  0
  7 31  2  0  0  0  0
  8 13  1  0  0  0  0
  8 14  1  0  0  0  0
  8 15  2  0  0  0  0
  9 10  1  0  0  0  0
 10 12  1  0  0  0  0
 10 13  2  0  0  0  0
 11 30  1  0  0  0  0
 12 26  1  0  0  0  0
 13 27  1  0  0  0  0
 14 32  2  0  0  0  0
 15 16  1  0  0  0  0
 15 33  1  0  0  0  0
 16 34  1  0  0  0  0
 17 32  1  0  0  0  0
 17 33  2  0  0  0  0
 17 35  1  0  0  0  0
 18 20  1  0  0  0  0
 18 35  1  0  0  0  0
 19 21  1  0  0  0  0
 19 35  1  0  0  0  0
 20 36  1  0  0  0  0
 21 36  1  0  0  0  0
 22 24  1  0  0  0  0
 22 37  1  0  0  0  0
 23 25  1  0  0  0  0
 23 37  1  0  0  0  0
 24 38  1  0  0  0  0
 25 38  1  0  0  0  0
 28 34  1  0  0  0  0
 29 36  1  0  0  0  0
 30 37  1  0  0  0  0
 31 34  1  0  0  0  0
  1 39  1  0  0  0  0
  2 40  1  0  0  0  0
  3 41  1  0  0  0  0
  4 42  1  0  0  0  0
  5 43  1  0  0  0  0
  6 44  1  0  0  0  0
  7 45  1  0  0  0  0
 18 46  1  0  0  0  0
 18 47  1  0  0  0  0
 19 48  1  0  0  0  0
 19 49  1  0  0  0  0
 20 50  1  0  0  0  0
 20 51  1  0  0  0  0
 21 52  1  0  0  0  0
 21 53  1  0  0  0  0
 22 54  1  0  0  0  0
 22 55  1  0  0  0  0
 23 56  1  0  0  0  0
 23 57  1  0  0  0  0
 24 58  1  0  0  0  0
 24 59  1  0  0  0  0
 25 60  1  0  0  0  0
 25 61  1  0  0  0  0
 26 62  1  0  0  0  0
 26 63  1  0  0  0  0
 26 64  1  0  0  0  0
 27 65  1  0  0  0  0
 27 66  1  0  0  0  0
 27 67  1  0  0  0  0
 28 68  1  0  0  0  0
 28 69  1  0  0  0  0
 28 70  1  0  0  0  0
 29 71  1  0  0  0  0
 29 72  1  0  0  0  0
 29 73  1  0  0  0  0
 30 74  1  0  0  0  0
 30 75  1  0  0  0  0
M  END
> <SMILES>
CN1CCN(CC1)c1nc(c2c(c(c(cc2n1)C)-c1ccc(cc1)CN1CCOCC1)C)-c1ccnn1C

> <FORMATTED_ID>
H3D-005326

> <MOLFORMULA>
C30H37N7O

> <Exact Mass>
511.31

> <XLogP>
3.86

> <TPSA_NOPS>
62.6

> <s_m_source_file>
ligprep_h3d.sdf

> <i_m_source_file_index>
785

> <i_lp_mmshare_version>
55123

> <i_f3d_flags>
0

> <s_epik_input>
W0NIM11uMW5bY0hdW2NIXWMxLWMybmMoTihbQ0gyXVtDSDJdMylbQ0gyXVtDSDJdTjNbQ0gzXSluYyhjMjQpW2NIXWMoW0NIM10pYyhjNFtDSDNdKS1jNVtjSF1bY0hdYyhbY0hdW2NIXTUpW0NIMl1ONltDSDJdW0NIMl1PW0NIMl1bQ0gyXTY=

> <s_epik_cmdline>
J2VwaWtfcHl0aG9uJywgJy1waHQnLCAnMC41JywgJy1waCcsICc3LjUnLCAnLXRuJywgJzgnLCAnLW1hJywgJzUwMCcsICctaW1hZScsICc8aW5maWxlLm1hZT4nLCAnLW9tYWUnLCAnPG91dGZpbGUubWFlPic=

> <r_lp_tautomer_probability>
1

> <r_epik_Ionization_Penalty>
0.489069

> <r_epik_Ionization_Penalty_Charging>
0

> <r_epik_Ionization_Penalty_Neutral>
0.489069

> <r_epik_State_Penalty>
0.362915

> <r_epik_Charging_Adjusted_Penalty>
0.362915

> <i_epik_Tot_Q>
0

> <i_epik_Tot_abs_Q>
0

> <s_lp_Force_Field>
S-OPLS

> <r_lp_Energy>
85.2919

> <b_lp_Chiralities_Consistent>
1

> <s_lp_Variant>
ligprep_h3d.sdf:785-1

> <ROCS_ShapeQuery>
_7L13

> <ROCS_TanimotoCombo>
0.653 

> <ROCS_ShapeTanimoto>
0.595 

> <ROCS_ColorTanimoto>
0.059 

> <ROCS_RefTversky>
0.768 

> <ROCS_RefColorTversky>
0.127 

> <ROCS_RefTverskyCombo>
0.895 

> <ROCS_FitTversky>
0.725 

> <ROCS_FitColorTversky>
0.098 

> <ROCS_FitTverskyCombo>
0.823 

> <ROCS_ColorScore>
-1.163

> <ROCS_Overlap>
1279.966

> <ROCS_Rank>
557                 

$$$$
ligprep_h3d.sdf:880_1785
  -OEChem-08212117123D

 64 68  0     0  0  0  0  0  0999 V2000
  -16.7971   -5.8959  -26.4957 C   0  0  0  0  0  0  0  0  0  0  0  0
  -23.0209   -4.2920  -28.8338 C   0  0  0  0  0  0  0  0  0  0  0  0
  -20.6981   -4.4341  -25.3907 C   0  0  0  0  0  0  0  0  0  0  0  0
  -16.6837   -4.4979  -26.6164 C   0  0  0  0  0  0  0  0  0  0  0  0
  -20.8766   -4.6075  -27.7955 C   0  0  0  0  0  0  0  0  0  0  0  0
  -21.0959   -4.7739  -30.2071 C   0  0  0  0  0  0  0  0  0  0  0  0
  -22.4546   -4.5074  -30.0926 C   0  0  0  0  0  0  0  0  0  0  0  0
  -20.3068   -4.8242  -29.0616 C   0  0  0  0  0  0  0  0  0  0  0  0
  -22.2555   -4.3366  -27.6718 C   0  0  0  0  0  0  0  0  0  0  0  0
  -20.1056   -4.6523  -26.6261 C   0  0  0  0  0  0  0  0  0  0  0  0
  -22.0538   -4.1764  -25.3698 C   0  0  0  0  0  0  0  0  0  0  0  0
  -18.1503   -6.1310  -26.4843 C   0  0  0  0  0  0  0  0  0  0  0  0
  -19.9764   -3.9196  -32.3507 C   0  0  0  0  0  0  0  0  0  0  0  0
  -20.4656   -6.2575  -32.0185 C   0  0  0  0  0  0  0  0  0  0  0  0
  -19.4481   -4.1691  -33.5534 C   0  0  0  0  0  0  0  0  0  0  0  0
  -20.5108   -4.9994  -31.5439 C   0  0  0  0  0  0  0  0  0  0  0  0
  -19.8788   -6.5528  -33.3627 C   0  0  0  0  0  0  0  0  0  0  0  0
  -22.7356   -3.9390  -24.1091 C   0  0  0  0  0  0  0  0  0  0  0  0
  -26.3736   -4.4306  -22.8735 C   0  0  0  0  0  0  0  0  0  0  0  0
  -25.4384   -5.2938  -22.0806 C   0  0  0  0  0  0  0  0  0  0  0  0
  -24.9013   -4.1230  -22.8573 C   0  0  0  0  0  0  0  0  0  0  0  0
  -23.3479   -4.4419  -31.2906 C   0  0  0  0  0  0  0  0  0  0  0  0
  -18.8468   -5.1171  -29.2646 C   0  0  0  0  0  0  0  0  0  0  0  0
  -18.9039   -7.3958  -26.3796 C   0  0  0  0  0  0  0  0  0  0  0  0
  -21.3219   -7.5106  -37.2297 C   0  0  0  0  0  0  0  0  0  0  0  0
  -18.7953   -5.6222  -35.3896 C   0  0  0  0  0  0  0  0  0  0  0  0
  -19.8917   -5.8318  -36.4180 C   0  0  0  0  0  0  0  0  0  0  0  0
  -17.8703   -3.8878  -26.6776 N   0  0  0  0  0  0  0  0  0  0  0  0
  -22.8333   -4.1243  -26.4742 N   0  0  0  0  0  0  0  0  0  0  0  0
  -18.7421   -4.9072  -26.5950 N   0  0  0  0  0  0  0  0  0  0  0  0
  -19.3896   -5.4501  -34.0694 N   0  0  0  0  0  0  0  0  0  0  0  0
  -24.0824   -4.3151  -24.0326 N   0  0  0  0  0  0  0  0  0  0  0  0
  -19.8604   -7.7180  -33.7568 O   0  0  0  0  0  0  0  0  0  0  0  0
  -22.1378   -3.4047  -23.1572 O   0  0  0  0  0  0  0  0  0  0  0  0
  -20.6174   -7.0127  -36.1006 O   0  0  0  0  0  0  0  0  0  0  0  0
  -16.0067   -6.6289  -26.4270 H   0  0  0  0  0  0  0  0  0  0  0  0
  -24.0877   -4.0841  -28.7592 H   0  0  0  0  0  0  0  0  0  0  0  0
  -20.1232   -4.4633  -24.4695 H   0  0  0  0  0  0  0  0  0  0  0  0
  -15.7859   -3.8985  -26.6626 H   0  0  0  0  0  0  0  0  0  0  0  0
  -20.0125   -2.9068  -31.9620 H   0  0  0  0  0  0  0  0  0  0  0  0
  -20.8490   -7.1063  -31.4582 H   0  0  0  0  0  0  0  0  0  0  0  0
  -19.0443   -3.3731  -34.1691 H   0  0  0  0  0  0  0  0  0  0  0  0
  -26.8038   -4.8504  -23.7746 H   0  0  0  0  0  0  0  0  0  0  0  0
  -27.0333   -3.7669  -22.3280 H   0  0  0  0  0  0  0  0  0  0  0  0
  -25.4681   -5.2117  -21.0010 H   0  0  0  0  0  0  0  0  0  0  0  0
  -25.2410   -6.2929  -22.4496 H   0  0  0  0  0  0  0  0  0  0  0  0
  -24.5914   -3.2580  -22.2808 H   0  0  0  0  0  0  0  0  0  0  0  0
  -23.3832   -3.4186  -31.6797 H   0  0  0  0  0  0  0  0  0  0  0  0
  -22.9914   -5.1079  -32.0849 H   0  0  0  0  0  0  0  0  0  0  0  0
  -24.3672   -4.7580  -31.0398 H   0  0  0  0  0  0  0  0  0  0  0  0
  -18.6768   -6.1961  -29.2278 H   0  0  0  0  0  0  0  0  0  0  0  0
  -18.5060   -4.7345  -30.2307 H   0  0  0  0  0  0  0  0  0  0  0  0
  -18.2439   -4.6338  -28.4905 H   0  0  0  0  0  0  0  0  0  0  0  0
  -19.1136   -7.6474  -25.3270 H   0  0  0  0  0  0  0  0  0  0  0  0
  -19.8695   -7.3474  -26.9113 H   0  0  0  0  0  0  0  0  0  0  0  0
  -18.3538   -8.2432  -26.8236 H   0  0  0  0  0  0  0  0  0  0  0  0
  -21.8667   -8.4157  -36.9501 H   0  0  0  0  0  0  0  0  0  0  0  0
  -20.6148   -7.7317  -38.0332 H   0  0  0  0  0  0  0  0  0  0  0  0
  -22.0308   -6.7518  -37.5694 H   0  0  0  0  0  0  0  0  0  0  0  0
  -18.1176   -6.4810  -35.3514 H   0  0  0  0  0  0  0  0  0  0  0  0
  -18.2197   -4.7218  -35.6246 H   0  0  0  0  0  0  0  0  0  0  0  0
  -19.4530   -5.9618  -37.4122 H   0  0  0  0  0  0  0  0  0  0  0  0
  -20.5875   -4.9868  -36.4426 H   0  0  0  0  0  0  0  0  0  0  0  0
  -24.5398   -4.6888  -24.8577 H   0  0  0  0  0  0  0  0  0  0  0  0
  1  4  1  0  0  0  0
  1 12  2  0  0  0  0
  2  7  1  0  0  0  0
  2  9  2  0  0  0  0
  3 10  2  0  0  0  0
  3 11  1  0  0  0  0
  4 28  2  0  0  0  0
  5  8  2  0  0  0  0
  5  9  1  0  0  0  0
  5 10  1  0  0  0  0
  6  7  2  0  0  0  0
  6  8  1  0  0  0  0
  6 16  1  0  0  0  0
  7 22  1  0  0  0  0
  8 23  1  0  0  0  0
  9 29  1  0  0  0  0
 10 30  1  0  0  0  0
 11 18  1  0  0  0  0
 11 29  2  0  0  0  0
 12 24  1  0  0  0  0
 12 30  1  0  0  0  0
 13 15  2  0  0  0  0
 13 16  1  0  0  0  0
 14 16  2  0  0  0  0
 14 17  1  0  0  0  0
 15 31  1  0  0  0  0
 17 31  1  0  0  0  0
 17 33  2  0  0  0  0
 18 32  1  0  0  0  0
 18 34  2  0  0  0  0
 19 20  1  0  0  0  0
 19 21  1  0  0  0  0
 20 21  1  0  0  0  0
 21 32  1  0  0  0  0
 25 35  1  0  0  0  0
 26 27  1  0  0  0  0
 26 31  1  0  0  0  0
 27 35  1  0  0  0  0
 28 30  1  0  0  0  0
  1 36  1  0  0  0  0
  2 37  1  0  0  0  0
  3 38  1  0  0  0  0
  4 39  1  0  0  0  0
 13 40  1  0  0  0  0
 14 41  1  0  0  0  0
 15 42  1  0  0  0  0
 19 43  1  0  0  0  0
 19 44  1  0  0  0  0
 20 45  1  0  0  0  0
 20 46  1  0  0  0  0
 21 47  1  0  0  0  0
 22 48  1  0  0  0  0
 22 49  1  0  0  0  0
 22 50  1  0  0  0  0
 23 51  1  0  0  0  0
 23 52  1  0  0  0  0
 23 53  1  0  0  0  0
 24 54  1  0  0  0  0
 24 55  1  0  0  0  0
 24 56  1  0  0  0  0
 25 57  1  0  0  0  0
 25 58  1  0  0  0  0
 25 59  1  0  0  0  0
 26 60  1  0  0  0  0
 26 61  1  0  0  0  0
 27 62  1  0  0  0  0
 27 63  1  0  0  0  0
 32 64  1  0  0  0  0
M  END
> <SMILES>
COCCN1C=CC(=CC1=O)c1c(cc2nc(cc(c2c1C)-n1nccc1C)C(=O)NC1CC1)C

> <FORMATTED_ID>
H3D-005748

> <MOLFORMULA>
C27H29N5O3

> <Exact Mass>
471.23

> <XLogP>
3.34

> <TPSA_NOPS>
89.3

> <s_m_source_file>
ligprep_h3d.sdf

> <i_m_source_file_index>
880

> <i_lp_mmshare_version>
55123

> <i_f3d_flags>
0

> <s_epik_input>
W0NIM11PW0NIMl1bQ0gyXW4xW2NIXVtjSF1jKFtjSF1jMT1PKS1jKGMoW2NIXTIpW0NIM10pYyhbQ0gzXSljKGMyMyljKC1uNG5bY0hdW2NIXWM0W0NIM10pW2NIXWMobjMpQyg9TylbTkhdW0NIXTVbQ0gyXVtDSDJdNQ==

> <s_epik_cmdline>
J2VwaWtfcHl0aG9uJywgJy1waHQnLCAnMC41JywgJy1waCcsICc3LjUnLCAnLXRuJywgJzgnLCAnLW1hJywgJzUwMCcsICctaW1hZScsICc8aW5maWxlLm1hZT4nLCAnLW9tYWUnLCAnPG91dGZpbGUubWFlPic=

> <r_lp_tautomer_probability>
1

> <r_epik_Ionization_Penalty>
1.22687e-05

> <r_epik_Ionization_Penalty_Charging>
2.32377e-07

> <r_epik_Ionization_Penalty_Neutral>
1.20364e-05

> <r_epik_State_Penalty>
-0

> <r_epik_Charging_Adjusted_Penalty>
2.32377e-07

> <i_epik_Tot_Q>
0

> <i_epik_Tot_abs_Q>
0

> <s_lp_Force_Field>
S-OPLS

> <r_lp_Energy>
71.4616

> <b_lp_Chiralities_Consistent>
1

> <s_lp_Variant>
ligprep_h3d.sdf:880-1

> <ROCS_ShapeQuery>
_7L13

> <ROCS_TanimotoCombo>
0.752 

> <ROCS_ShapeTanimoto>
0.633 

> <ROCS_ColorTanimoto>
0.119 

> <ROCS_RefTversky>
0.768 

> <ROCS_RefColorTversky>
0.223 

> <ROCS_RefTverskyCombo>
0.991 

> <ROCS_FitTversky>
0.783 

> <ROCS_FitColorTversky>
0.203 

> <ROCS_FitTverskyCombo>
0.986 

> <ROCS_ColorScore>
-2.020

> <ROCS_Overlap>
1274.328

> <ROCS_Rank>
558                 

$$$$
ligprep_h3d.sdf:1256_44
  -OEChem-08212117123D

 55 60  0     1  0  0  0  0  0999 V2000
  -22.4394   -2.9231  -22.0396 C   0  0  0  0  0  0  0  0  0  0  0  0
  -20.9252   -5.1121  -29.5419 C   0  0  0  0  0  0  0  0  0  0  0  0
  -21.7214   -4.3617  -30.4096 C   0  0  0  0  0  0  0  0  0  0  0  0
  -21.0518   -4.9011  -28.1477 C   0  0  0  0  0  0  0  0  0  0  0  0
  -21.9816   -3.9897  -27.5975 C   0  0  0  0  0  0  0  0  0  0  0  0
  -22.6012   -3.4497  -29.8692 C   0  0  0  0  0  0  0  0  0  0  0  0
  -22.7619   -3.2295  -28.5012 C   0  0  0  0  0  0  0  0  0  0  0  0
  -21.9160   -4.2332  -31.7974 C   0  0  0  0  0  0  0  0  0  0  0  0
  -21.2164   -4.9941  -32.8485 C   0  0  0  0  0  0  0  0  0  0  0  0
  -20.4875   -6.5616  -34.0434 C   0  0  0  0  0  0  0  0  0  0  0  0
  -18.9061   -3.7790  -26.2849 C   0  0  0  0  0  0  0  0  0  0  0  0
  -19.1496   -6.0482  -25.0839 C   0  0  0  0  0  0  0  0  0  0  0  0
  -16.9346   -5.2309  -25.8625 C   0  0  0  0  0  0  0  0  0  0  0  0
  -20.1695   -5.7094  -27.2369 C   0  0  0  0  0  0  0  0  0  0  0  0
  -23.1668   -2.9988  -25.6647 C   0  0  0  0  0  0  0  0  0  0  0  0
  -21.1613   -4.4824  -25.2539 C   0  0  2  0  0  0  0  0  0  0  0  0
  -23.5294   -3.3373  -24.2206 C   0  0  1  0  0  0  0  0  0  0  0  0
  -20.9973   -3.5154  -24.0332 C   0  0  2  0  0  0  0  0  0  0  0  0
  -19.8297   -4.9552  -25.9266 C   0  0  0  0  0  0  0  0  0  0  0  0
  -20.3034   -7.9554  -34.4669 C   0  0  0  0  0  0  0  0  0  0  0  0
  -24.3225   -4.6378  -24.0842 C   0  0  0  0  0  0  0  0  0  0  0  0
  -19.9300   -3.9469  -23.0189 C   0  0  0  0  0  0  0  0  0  0  0  0
  -22.5320   -2.5418  -20.9480 N   0  0  0  0  0  0  0  0  0  0  0  0
  -22.8392   -3.3146  -32.0970 N   0  0  0  0  0  0  0  0  0  0  0  0
  -20.4837   -4.4268  -33.7780 N   0  0  0  0  0  0  0  0  0  0  0  0
  -20.0044   -5.4580  -34.5642 N   0  0  0  0  0  0  0  0  0  0  0  0
  -17.5564   -4.0885  -26.3463 N   0  0  0  0  0  0  0  0  0  0  0  0
  -17.7736   -6.1371  -25.2294 N   0  0  0  0  0  0  0  0  0  0  0  0
  -22.3313   -3.3681  -23.3143 N   0  0  0  0  0  0  0  0  0  0  0  0
  -22.1025   -3.8460  -26.2116 N   0  0  3  0  0  0  0  0  0  0  0  0
  -19.3221   -2.6541  -26.5619 O   0  0  0  0  0  0  0  0  0  0  0  0
  -19.7799   -6.8504  -24.3938 O   0  0  0  0  0  0  0  0  0  0  0  0
  -15.7185   -5.4086  -25.9518 O   0  0  0  0  0  0  0  0  0  0  0  0
  -23.2702   -2.8181  -30.8723 O   0  0  0  0  0  0  0  0  0  0  0  0
  -21.2688   -6.3506  -32.9489 O   0  0  0  0  0  0  0  0  0  0  0  0
  -23.7062   -2.3638  -28.1077 F   0  0  0  0  0  0  0  0  0  0  0  0
  -20.2240   -5.8459  -29.9267 H   0  0  0  0  0  0  0  0  0  0  0  0
  -20.7046   -6.6312  -27.0131 H   0  0  0  0  0  0  0  0  0  0  0  0
  -19.2550   -5.9722  -27.7656 H   0  0  0  0  0  0  0  0  0  0  0  0
  -24.0389   -3.0338  -26.3405 H   0  0  0  0  0  0  0  0  0  0  0  0
  -22.8673   -1.9400  -25.6226 H   0  0  0  0  0  0  0  0  0  0  0  0
  -21.6895   -5.3648  -24.8566 H   0  0  0  0  0  0  0  0  0  0  0  0
  -24.1670   -2.5084  -23.8393 H   0  0  0  0  0  0  0  0  0  0  0  0
  -20.7198   -2.5374  -24.3798 H   0  0  0  0  0  0  0  0  0  0  0  0
  -19.4262   -8.4152  -33.9766 H   0  0  0  0  0  0  0  0  0  0  0  0
  -21.1804   -8.5871  -34.2307 H   0  0  0  0  0  0  0  0  0  0  0  0
  -20.1552   -8.0479  -35.5594 H   0  0  0  0  0  0  0  0  0  0  0  0
  -23.7260   -5.4713  -24.4493 H   0  0  0  0  0  0  0  0  0  0  0  0
  -25.2393   -4.5713  -24.6662 H   0  0  0  0  0  0  0  0  0  0  0  0
  -24.5729   -4.8070  -23.0389 H   0  0  0  0  0  0  0  0  0  0  0  0
  -20.1683   -4.9368  -22.6372 H   0  0  0  0  0  0  0  0  0  0  0  0
  -19.9039   -3.2396  -22.1934 H   0  0  0  0  0  0  0  0  0  0  0  0
  -18.9563   -3.9723  -23.5022 H   0  0  0  0  0  0  0  0  0  0  0  0
  -16.9568   -3.4049  -26.7939 H   0  0  0  0  0  0  0  0  0  0  0  0
  -17.3298   -6.9583  -24.8271 H   0  0  0  0  0  0  0  0  0  0  0  0
  1 23  3  0  0  0  0
  1 29  1  0  0  0  0
  2  3  2  0  0  0  0
  2  4  1  0  0  0  0
  3  6  1  0  0  0  0
  3  8  1  0  0  0  0
  4  5  2  0  0  0  0
  4 14  1  0  0  0  0
  5  7  1  0  0  0  0
  5 30  1  0  0  0  0
  6  7  2  0  0  0  0
  6 34  1  0  0  0  0
  7 36  1  0  0  0  0
  8  9  1  0  0  0  0
  8 24  2  0  0  0  0
  9 25  2  0  0  0  0
  9 35  1  0  0  0  0
 10 20  1  0  0  0  0
 10 26  2  0  0  0  0
 10 35  1  0  0  0  0
 11 19  1  0  0  0  0
 11 27  1  0  0  0  0
 11 31  2  0  0  0  0
 12 19  1  0  0  0  0
 12 28  1  0  0  0  0
 12 32  2  0  0  0  0
 13 27  1  0  0  0  0
 13 28  1  0  0  0  0
 13 33  2  0  0  0  0
 14 19  1  0  0  0  0
 15 17  1  0  0  0  0
 15 30  1  0  0  0  0
 16 18  1  0  0  0  0
 16 19  1  0  0  0  0
 16 30  1  0  0  0  0
 17 21  1  0  0  0  0
 17 29  1  0  0  0  0
 18 22  1  0  0  0  0
 18 29  1  0  0  0  0
 24 34  1  0  0  0  0
 25 26  1  0  0  0  0
  2 37  1  0  0  0  0
 14 38  1  0  0  0  0
 14 39  1  0  0  0  0
 15 40  1  0  0  0  0
 15 41  1  0  0  0  0
 16 42  1  0  0  0  0
 17 43  1  0  0  0  0
 18 44  1  0  0  0  0
 20 45  1  0  0  0  0
 20 46  1  0  0  0  0
 20 47  1  0  0  0  0
 21 48  1  0  0  0  0
 21 49  1  0  0  0  0
 21 50  1  0  0  0  0
 22 51  1  0  0  0  0
 22 52  1  0  0  0  0
 22 53  1  0  0  0  0
 27 54  1  0  0  0  0
 28 55  1  0  0  0  0
M  END
> <SMILES>
CC1CN2C(C(C)N1C#N)C1(Cc3cc4c(noc4c(c32)F)-c2nnc(o2)C)C(=O)NC(=O)NC1=O

> <FORMATTED_ID>
H3D-008534

> <MOLFORMULA>
C22H19FN8O5

> <Exact Mass>
494.15

> <XLogP>
0.88

> <TPSA_NOPS>
171.1

> <s_m_source_file>
ligprep_h3d.sdf

> <i_m_source_file_index>
1256

> <i_lp_mmshare_version>
55123

> <i_f3d_flags>
0

> <s_epik_input>
Tz1DMVtOSF1DKD1PKVtOSF1DKD1PKUMxMltDQEBIXTNOKFtDSDJdW0NAQEhdKFtDSDNdKU4oQyNOKVtDQEhdM1tDSDNdKWM0YyhbQ0gyXTIpW2NIXWM1YyhjNEYpb25jNS1jNm5uYyhvNilbQ0gzXQ==

> <s_epik_cmdline>
J2VwaWtfcHl0aG9uJywgJy1waHQnLCAnMC41JywgJy1waCcsICc3LjUnLCAnLXRuJywgJzgnLCAnLW1hJywgJzUwMCcsICctaW1hZScsICc8aW5maWxlLm1hZT4nLCAnLW9tYWUnLCAnPG91dGZpbGUubWFlPic=

> <r_lp_tautomer_probability>
1

> <r_epik_Ionization_Penalty>
0.218697

> <r_epik_Ionization_Penalty_Charging>
0

> <r_epik_Ionization_Penalty_Neutral>
0.218697

> <r_epik_State_Penalty>
0.208986

> <r_epik_Charging_Adjusted_Penalty>
0.208986

> <i_epik_Tot_Q>
0

> <i_epik_Tot_abs_Q>
0

> <s_lp_Force_Field>
S-OPLS

> <r_lp_Energy>
50.2467

> <b_lp_Chiralities_Consistent>
1

> <s_lp_Variant>
ligprep_h3d.sdf:1256-1

> <ROCS_ShapeQuery>
_7L13

> <ROCS_TanimotoCombo>
0.731 

> <ROCS_ShapeTanimoto>
0.608 

> <ROCS_ColorTanimoto>
0.123 

> <ROCS_RefTversky>
0.768 

> <ROCS_RefColorTversky>
0.296 

> <ROCS_RefTverskyCombo>
1.064 

> <ROCS_FitTversky>
0.744 

> <ROCS_FitColorTversky>
0.174 

> <ROCS_FitTverskyCombo>
0.918 

> <ROCS_ColorScore>
-2.772

> <ROCS_Overlap>
1277.735

> <ROCS_Rank>
559                 

$$$$
ligprep_h3d.sdf:975_1998
  -OEChem-08212117123D

 63 68  0     1  0  0  0  0  0999 V2000
  -20.5882   -4.5629  -29.5121 C   0  0  0  0  0  0  0  0  0  0  0  0
  -21.5096   -4.1632  -30.4835 C   0  0  0  0  0  0  0  0  0  0  0  0
  -20.9559   -4.4870  -28.1466 C   0  0  0  0  0  0  0  0  0  0  0  0
  -22.2280   -4.0095  -27.7392 C   0  0  0  0  0  0  0  0  0  0  0  0
  -22.7413   -3.7015  -30.0725 C   0  0  0  0  0  0  0  0  0  0  0  0
  -23.1407   -3.6064  -28.7400 C   0  0  0  0  0  0  0  0  0  0  0  0
  -21.5695   -4.0732  -31.8869 C   0  0  0  0  0  0  0  0  0  0  0  0
  -19.8660   -7.2612  -36.2566 C   0  0  0  0  0  0  0  0  0  0  0  0
  -19.1646   -4.7834  -24.8121 C   0  0  0  0  0  0  0  0  0  0  0  0
  -21.0167   -6.4309  -25.5135 C   0  0  0  0  0  0  0  0  0  0  0  0
  -18.8346   -7.2355  -24.6324 C   0  0  0  0  0  0  0  0  0  0  0  0
  -19.9070   -4.9068  -27.1378 C   0  0  0  0  0  0  0  0  0  0  0  0
  -19.4436   -5.8409  -36.5475 C   0  0  0  0  0  0  0  0  0  0  0  0
  -18.8930   -5.3594  -35.2088 C   0  0  0  0  0  0  0  0  0  0  0  0
  -23.9055   -3.6955  -25.9111 C   0  0  0  0  0  0  0  0  0  0  0  0
  -21.4480   -3.8817  -25.4159 C   0  0  1  0  0  0  0  0  0  0  0  0
  -19.6952   -6.1397  -34.1724 C   0  0  1  0  0  0  0  0  0  0  0  0
  -24.2037   -4.5100  -24.6489 C   0  0  2  0  0  0  0  0  0  0  0  0
  -21.9708   -3.8549  -23.9562 C   0  0  1  0  0  0  0  0  0  0  0  0
  -20.4158   -5.0246  -25.6743 C   0  0  0  0  0  0  0  0  0  0  0  0
  -25.3756   -3.9248  -23.8680 C   0  0  0  0  0  0  0  0  0  0  0  0
  -22.2272   -2.4434  -23.4245 C   0  0  0  0  0  0  0  0  0  0  0  0
  -20.3954   -8.5777  -34.1718 C   0  0  0  0  0  0  0  0  0  0  0  0
  -20.9688   -5.4088  -33.7607 C   0  0  0  0  0  0  0  0  0  0  0  0
  -22.7418   -3.5950  -32.3148 N   0  0  0  0  0  0  0  0  0  0  0  0
  -18.4339   -5.9155  -24.4938 N   0  0  0  0  0  0  0  0  0  0  0  0
  -20.1239   -7.4130  -25.1124 N   0  0  0  0  0  0  0  0  0  0  0  0
  -22.5539   -3.9646  -26.3813 N   0  0  3  0  0  0  0  0  0  0  0  0
  -19.9804   -7.3795  -34.8722 N   0  0  0  0  0  0  0  0  0  0  0  0
  -20.0901   -8.1076  -37.1091 O   0  0  0  0  0  0  0  0  0  0  0  0
  -18.7885   -3.6572  -24.4837 O   0  0  0  0  0  0  0  0  0  0  0  0
  -22.1811   -6.7079  -25.7988 O   0  0  0  0  0  0  0  0  0  0  0  0
  -18.1128   -8.1817  -24.3130 O   0  0  0  0  0  0  0  0  0  0  0  0
  -23.4817   -3.3587  -31.1622 O   0  0  0  0  0  0  0  0  0  0  0  0
  -23.1037   -4.6928  -23.7625 O   0  0  0  0  0  0  0  0  0  0  0  0
  -20.6376   -4.4010  -32.7919 O   0  0  0  0  0  0  0  0  0  0  0  0
  -24.3991   -3.2350  -28.4881 F   0  0  0  0  0  0  0  0  0  0  0  0
  -19.6087   -4.9347  -29.8030 H   0  0  0  0  0  0  0  0  0  0  0  0
  -19.4681   -5.8727  -27.4550 H   0  0  0  0  0  0  0  0  0  0  0  0
  -19.0818   -4.1719  -27.2048 H   0  0  0  0  0  0  0  0  0  0  0  0
  -18.6836   -5.8115  -37.3321 H   0  0  0  0  0  0  0  0  0  0  0  0
  -20.3223   -5.2654  -36.8543 H   0  0  0  0  0  0  0  0  0  0  0  0
  -17.8319   -5.6297  -35.1339 H   0  0  0  0  0  0  0  0  0  0  0  0
  -18.9710   -4.2735  -35.0992 H   0  0  0  0  0  0  0  0  0  0  0  0
  -24.7131   -3.8856  -26.6241 H   0  0  0  0  0  0  0  0  0  0  0  0
  -23.9717   -2.6191  -25.6775 H   0  0  0  0  0  0  0  0  0  0  0  0
  -20.9349   -2.9333  -25.6176 H   0  0  0  0  0  0  0  0  0  0  0  0
  -19.0837   -6.3490  -33.2891 H   0  0  0  0  0  0  0  0  0  0  0  0
  -24.5514   -5.5538  -24.9733 H   0  0  0  0  0  0  0  0  0  0  0  0
  -21.1394   -4.2700  -23.2829 H   0  0  0  0  0  0  0  0  0  0  0  0
  -25.1277   -2.9224  -23.5187 H   0  0  0  0  0  0  0  0  0  0  0  0
  -25.6009   -4.5536  -23.0065 H   0  0  0  0  0  0  0  0  0  0  0  0
  -26.2580   -3.8690  -24.5056 H   0  0  0  0  0  0  0  0  0  0  0  0
  -23.0119   -1.9619  -24.0082 H   0  0  0  0  0  0  0  0  0  0  0  0
  -21.3174   -1.8473  -23.4954 H   0  0  0  0  0  0  0  0  0  0  0  0
  -22.5399   -2.4891  -22.3812 H   0  0  0  0  0  0  0  0  0  0  0  0
  -19.5127   -9.1913  -33.9391 H   0  0  0  0  0  0  0  0  0  0  0  0
  -20.9043   -8.2984  -33.2375 H   0  0  0  0  0  0  0  0  0  0  0  0
  -21.0849   -9.1532  -34.8069 H   0  0  0  0  0  0  0  0  0  0  0  0
  -21.6839   -6.1059  -33.3137 H   0  0  0  0  0  0  0  0  0  0  0  0
  -21.4319   -4.9266  -34.6267 H   0  0  0  0  0  0  0  0  0  0  0  0
  -17.5037   -5.7627  -24.1182 H   0  0  0  0  0  0  0  0  0  0  0  0
  -20.4523   -8.3735  -25.1776 H   0  0  0  0  0  0  0  0  0  0  0  0
  1  2  2  0  0  0  0
  1  3  1  0  0  0  0
  2  5  1  0  0  0  0
  2  7  1  0  0  0  0
  3  4  2  0  0  0  0
  3 12  1  0  0  0  0
  4  6  1  0  0  0  0
  4 28  1  0  0  0  0
  5  6  2  0  0  0  0
  5 34  1  0  0  0  0
  6 37  1  0  0  0  0
  7 25  2  0  0  0  0
  7 36  1  0  0  0  0
  8 13  1  0  0  0  0
  8 29  1  0  0  0  0
  8 30  2  0  0  0  0
  9 20  1  0  0  0  0
  9 26  1  0  0  0  0
  9 31  2  0  0  0  0
 10 20  1  0  0  0  0
 10 27  1  0  0  0  0
 10 32  2  0  0  0  0
 11 26  1  0  0  0  0
 11 27  1  0  0  0  0
 11 33  2  0  0  0  0
 12 20  1  0  0  0  0
 13 14  1  0  0  0  0
 14 17  1  0  0  0  0
 15 18  1  0  0  0  0
 15 28  1  0  0  0  0
 16 19  1  0  0  0  0
 16 20  1  0  0  0  0
 16 28  1  0  0  0  0
 17 24  1  0  0  0  0
 17 29  1  0  0  0  0
 18 21  1  0  0  0  0
 18 35  1  0  0  0  0
 19 22  1  0  0  0  0
 19 35  1  0  0  0  0
 23 29  1  0  0  0  0
 24 36  1  0  0  0  0
 25 34  1  0  0  0  0
  1 38  1  0  0  0  0
 12 39  1  0  0  0  0
 12 40  1  0  0  0  0
 13 41  1  0  0  0  0
 13 42  1  0  0  0  0
 14 43  1  0  0  0  0
 14 44  1  0  0  0  0
 15 45  1  0  0  0  0
 15 46  1  0  0  0  0
 16 47  1  0  0  0  0
 17 48  1  0  0  0  0
 18 49  1  0  0  0  0
 19 50  1  0  0  0  0
 21 51  1  0  0  0  0
 21 52  1  0  0  0  0
 21 53  1  0  0  0  0
 22 54  1  0  0  0  0
 22 55  1  0  0  0  0
 22 56  1  0  0  0  0
 23 57  1  0  0  0  0
 23 58  1  0  0  0  0
 23 59  1  0  0  0  0
 24 60  1  0  0  0  0
 24 61  1  0  0  0  0
 26 62  1  0  0  0  0
 27 63  1  0  0  0  0
M  END
> <SMILES>
C[C@H]1CN2[C@@H]([C@@H](C)O1)C1(Cc3cc4c(noc4c(c32)F)OC[C@@H]2CCC(=O)N2C)C(=O)NC(=O)NC1=O

> <FORMATTED_ID>
H3D-006043

> <MOLFORMULA>
C24H26FN5O7

> <Exact Mass>
515.18

> <XLogP>
0.83

> <TPSA_NOPS>
143.6

> <s_m_source_file>
ligprep_h3d.sdf

> <i_m_source_file_index>
975

> <i_lp_mmshare_version>
55123

> <i_f3d_flags>
0

> <s_epik_input>
Tz1DMVtOSF1DKD1PKVtOSF1DKD1PKUMxMltDQEhdM04oW0NIMl1bQ0BIXShbQ0gzXSlPW0NAQEhdM1tDSDNdKWM0YyhbQ0gyXTIpW2NIXWM1YyhjNEYpb25jNU9bQ0gyXVtDQEBIXTZbQ0gyXVtDSDJdQyg9TylONltDSDNd

> <s_epik_cmdline>
J2VwaWtfcHl0aG9uJywgJy1waHQnLCAnMC41JywgJy1waCcsICc3LjUnLCAnLXRuJywgJzgnLCAnLW1hJywgJzUwMCcsICctaW1hZScsICc8aW5maWxlLm1hZT4nLCAnLW9tYWUnLCAnPG91dGZpbGUubWFlPic=

> <r_lp_tautomer_probability>
1

> <r_epik_Ionization_Penalty>
0.369127

> <r_epik_Ionization_Penalty_Charging>
0

> <r_epik_Ionization_Penalty_Neutral>
0.369127

> <r_epik_State_Penalty>
0.366447

> <r_epik_Charging_Adjusted_Penalty>
0.366447

> <i_epik_Tot_Q>
0

> <i_epik_Tot_abs_Q>
0

> <s_lp_Force_Field>
S-OPLS

> <r_lp_Energy>
37.3566

> <b_lp_Chiralities_Consistent>
1

> <s_lp_Variant>
ligprep_h3d.sdf:975-1

> <ROCS_ShapeQuery>
_7L13

> <ROCS_TanimotoCombo>
0.694 

> <ROCS_ShapeTanimoto>
0.601 

> <ROCS_ColorTanimoto>
0.092 

> <ROCS_RefTversky>
0.768 

> <ROCS_RefColorTversky>
0.218 

> <ROCS_RefTverskyCombo>
0.986 

> <ROCS_FitTversky>
0.735 

> <ROCS_FitColorTversky>
0.138 

> <ROCS_FitTverskyCombo>
0.872 

> <ROCS_ColorScore>
-2.031

> <ROCS_Overlap>
1278.692

> <ROCS_Rank>
560                 

$$$$
ligprep_h3d.sdf:5243_1431
  -OEChem-08212117123D

 61 65  0     0  0  0  0  0  0999 V2000
  -25.6835   -4.4478  -23.3778 C   0  0  0  0  0  0  0  0  0  0  0  0
  -24.5108   -3.9354  -22.8231 C   0  0  0  0  0  0  0  0  0  0  0  0
  -25.6515   -5.0673  -24.6272 C   0  0  0  0  0  0  0  0  0  0  0  0
  -23.3060   -4.0424  -23.5179 C   0  0  0  0  0  0  0  0  0  0  0  0
  -24.4468   -5.1743  -25.3219 C   0  0  0  0  0  0  0  0  0  0  0  0
  -20.6165   -4.8634  -29.5951 C   0  0  0  0  0  0  0  0  0  0  0  0
  -22.6843   -3.2472  -28.5230 C   0  0  0  0  0  0  0  0  0  0  0  0
  -18.6304   -8.1927  -36.0278 C   0  0  0  0  0  0  0  0  0  0  0  0
  -18.2531   -6.1149  -37.0262 C   0  0  0  0  0  0  0  0  0  0  0  0
  -21.5576   -4.2745  -30.4230 C   0  0  0  0  0  0  0  0  0  0  0  0
  -23.2739   -4.6619  -24.7673 C   0  0  0  0  0  0  0  0  0  0  0  0
  -18.0625   -7.4811  -37.0648 C   0  0  0  0  0  0  0  0  0  0  0  0
  -22.5683   -3.4848  -29.8786 C   0  0  0  0  0  0  0  0  0  0  0  0
  -20.7109   -4.6392  -28.2177 C   0  0  0  0  0  0  0  0  0  0  0  0
  -21.7362   -3.8372  -27.6864 C   0  0  0  0  0  0  0  0  0  0  0  0
  -19.4479   -6.2853  -35.1000 C   0  0  0  0  0  0  0  0  0  0  0  0
  -22.9742   -3.4536  -32.1435 C   0  0  0  0  0  0  0  0  0  0  0  0
  -21.9967   -5.7642  -32.4270 C   0  0  0  0  0  0  0  0  0  0  0  0
  -20.5110   -3.6918  -32.6395 C   0  0  0  0  0  0  0  0  0  0  0  0
  -20.7546   -6.4539  -32.9943 C   0  0  0  0  0  0  0  0  0  0  0  0
  -20.3350   -4.2090  -34.0684 C   0  0  0  0  0  0  0  0  0  0  0  0
  -21.7113   -4.3378  -31.9279 C   0  0  0  0  0  0  0  0  0  0  0  0
  -18.1835   -8.5486  -39.3302 C   0  0  0  0  0  0  0  0  0  0  0  0
  -18.6134   -4.4572  -27.1117 C   0  0  0  0  0  0  0  0  0  0  0  0
  -17.2985   -8.1415  -38.1508 C   0  0  0  0  0  0  0  0  0  0  0  0
  -21.9783   -4.7771  -25.5153 C   0  0  0  0  0  0  0  0  0  0  0  0
  -19.3322   -7.6249  -35.0251 N   0  0  0  0  0  0  0  0  0  0  0  0
  -18.9432   -5.4814  -36.0552 N   0  0  0  0  0  0  0  0  0  0  0  0
  -23.3937   -3.0076  -30.8876 N   0  0  0  0  0  0  0  0  0  0  0  0
  -20.1667   -5.6643  -34.0793 N   0  0  0  0  0  0  0  0  0  0  0  0
  -23.4936   -3.1973  -33.2200 O   0  0  0  0  0  0  0  0  0  0  0  0
  -19.7908   -5.2113  -27.3886 O   0  0  0  0  0  0  0  0  0  0  0  0
  -21.8139   -3.6269  -26.3411 O   0  0  0  0  0  0  0  0  0  0  0  0
  -26.6213   -4.3656  -22.8361 H   0  0  0  0  0  0  0  0  0  0  0  0
  -24.5353   -3.4540  -21.8499 H   0  0  0  0  0  0  0  0  0  0  0  0
  -26.5642   -5.4673  -25.0588 H   0  0  0  0  0  0  0  0  0  0  0  0
  -22.3972   -3.6401  -23.0780 H   0  0  0  0  0  0  0  0  0  0  0  0
  -24.4314   -5.6584  -26.2948 H   0  0  0  0  0  0  0  0  0  0  0  0
  -19.8257   -5.4854  -30.0006 H   0  0  0  0  0  0  0  0  0  0  0  0
  -23.4786   -2.6268  -28.1228 H   0  0  0  0  0  0  0  0  0  0  0  0
  -18.5362   -9.2723  -35.9655 H   0  0  0  0  0  0  0  0  0  0  0  0
  -17.8465   -5.4662  -37.7955 H   0  0  0  0  0  0  0  0  0  0  0  0
  -22.7822   -5.7568  -33.1971 H   0  0  0  0  0  0  0  0  0  0  0  0
  -22.3895   -6.3927  -31.6135 H   0  0  0  0  0  0  0  0  0  0  0  0
  -19.5826   -3.8566  -32.0814 H   0  0  0  0  0  0  0  0  0  0  0  0
  -20.6358   -2.6035  -32.6902 H   0  0  0  0  0  0  0  0  0  0  0  0
  -20.0309   -6.6066  -32.1830 H   0  0  0  0  0  0  0  0  0  0  0  0
  -21.0127   -7.4474  -33.3797 H   0  0  0  0  0  0  0  0  0  0  0  0
  -21.2183   -3.9341  -34.6572 H   0  0  0  0  0  0  0  0  0  0  0  0
  -19.4666   -3.7317  -34.5373 H   0  0  0  0  0  0  0  0  0  0  0  0
  -18.9950   -9.2062  -39.0005 H   0  0  0  0  0  0  0  0  0  0  0  0
  -17.6038   -9.0808  -40.0909 H   0  0  0  0  0  0  0  0  0  0  0  0
  -18.6346   -7.6688  -39.8014 H   0  0  0  0  0  0  0  0  0  0  0  0
  -17.9652   -5.0257  -26.4403 H   0  0  0  0  0  0  0  0  0  0  0  0
  -18.8892   -3.5057  -26.6502 H   0  0  0  0  0  0  0  0  0  0  0  0
  -18.0853   -4.2659  -28.0488 H   0  0  0  0  0  0  0  0  0  0  0  0
  -16.4948   -7.4810  -38.5231 H   0  0  0  0  0  0  0  0  0  0  0  0
  -16.7767   -9.0394  -37.7736 H   0  0  0  0  0  0  0  0  0  0  0  0
  -21.1314   -4.8444  -24.8239 H   0  0  0  0  0  0  0  0  0  0  0  0
  -21.9718   -5.6743  -26.1436 H   0  0  0  0  0  0  0  0  0  0  0  0
  -24.1973   -2.4132  -30.7218 H   0  0  0  0  0  0  0  0  0  0  0  0
  1  2  2  0  0  0  0
  1  3  1  0  0  0  0
  2  4  1  0  0  0  0
  3  5  2  0  0  0  0
  4 11  2  0  0  0  0
  5 11  1  0  0  0  0
  6 10  2  0  0  0  0
  6 14  1  0  0  0  0
  7 13  2  0  0  0  0
  7 15  1  0  0  0  0
  8 12  2  0  0  0  0
  8 27  1  0  0  0  0
  9 12  1  0  0  0  0
  9 28  2  0  0  0  0
 10 13  1  0  0  0  0
 10 22  1  0  0  0  0
 11 26  1  0  0  0  0
 12 25  1  0  0  0  0
 13 29  1  0  0  0  0
 14 15  2  0  0  0  0
 14 32  1  0  0  0  0
 15 33  1  0  0  0  0
 16 27  2  0  0  0  0
 16 28  1  0  0  0  0
 16 30  1  0  0  0  0
 17 22  1  0  0  0  0
 17 29  1  0  0  0  0
 17 31  2  0  0  0  0
 18 20  1  0  0  0  0
 18 22  1  0  0  0  0
 19 21  1  0  0  0  0
 19 22  1  0  0  0  0
 20 30  1  0  0  0  0
 21 30  1  0  0  0  0
 23 25  1  0  0  0  0
 24 32  1  0  0  0  0
 26 33  1  0  0  0  0
  1 34  1  0  0  0  0
  2 35  1  0  0  0  0
  3 36  1  0  0  0  0
  4 37  1  0  0  0  0
  5 38  1  0  0  0  0
  6 39  1  0  0  0  0
  7 40  1  0  0  0  0
  8 41  1  0  0  0  0
  9 42  1  0  0  0  0
 18 43  1  0  0  0  0
 18 44  1  0  0  0  0
 19 45  1  0  0  0  0
 19 46  1  0  0  0  0
 20 47  1  0  0  0  0
 20 48  1  0  0  0  0
 21 49  1  0  0  0  0
 21 50  1  0  0  0  0
 23 51  1  0  0  0  0
 23 52  1  0  0  0  0
 23 53  1  0  0  0  0
 24 54  1  0  0  0  0
 24 55  1  0  0  0  0
 24 56  1  0  0  0  0
 25 57  1  0  0  0  0
 25 58  1  0  0  0  0
 26 59  1  0  0  0  0
 26 60  1  0  0  0  0
 29 61  1  0  0  0  0
M  END
> <SMILES>
CCc1cnc(nc1)N1CCC2(CC1)C(=O)Nc1cc(c(cc12)OC)OCc1ccccc1

> <FORMATTED_ID>
H3D-014060

> <MOLFORMULA>
C26H28N4O3

> <Exact Mass>
444.22

> <XLogP>
4.54

> <TPSA_NOPS>
76.6

> <s_m_source_file>
ligprep_h3d.sdf

> <i_m_source_file_index>
5243

> <i_lp_mmshare_version>
55123

> <i_f3d_flags>
0

> <s_epik_input>
W0NIM11bQ0gyXWMxW2NIXW5jKG5bY0hdMSlOKFtDSDJdW0NIMl0yKVtDSDJdW0NIMl1DMjNjNGMoW05IXUMzPU8pW2NIXWMoYyhbY0hdNClPW0NIM10pT1tDSDJdYzVbY0hdW2NIXVtjSF1bY0hdW2NIXTU=

> <s_epik_cmdline>
J2VwaWtfcHl0aG9uJywgJy1waHQnLCAnMC41JywgJy1waCcsICc3LjUnLCAnLXRuJywgJzgnLCAnLW1hJywgJzUwMCcsICctaW1hZScsICc8aW5maWxlLm1hZT4nLCAnLW9tYWUnLCAnPG91dGZpbGUubWFlPic=

> <r_lp_tautomer_probability>
1

> <r_epik_Ionization_Penalty>
9.82542e-05

> <r_epik_Ionization_Penalty_Charging>
0

> <r_epik_Ionization_Penalty_Neutral>
9.82542e-05

> <r_epik_State_Penalty>
-0

> <r_epik_Charging_Adjusted_Penalty>
0

> <i_epik_Tot_Q>
0

> <i_epik_Tot_abs_Q>
0

> <s_lp_Force_Field>
S-OPLS

> <r_lp_Energy>
70.1253

> <b_lp_Chiralities_Consistent>
1

> <s_lp_Variant>
ligprep_h3d.sdf:5243-1

> <ROCS_ShapeQuery>
_7L13

> <ROCS_TanimotoCombo>
0.772 

> <ROCS_ShapeTanimoto>
0.663 

> <ROCS_ColorTanimoto>
0.109 

> <ROCS_RefTversky>
0.768 

> <ROCS_RefColorTversky>
0.225 

> <ROCS_RefTverskyCombo>
0.993 

> <ROCS_FitTversky>
0.829 

> <ROCS_FitColorTversky>
0.174 

> <ROCS_FitTverskyCombo>
1.003 

> <ROCS_ColorScore>
-2.062

> <ROCS_Overlap>
1270.168

> <ROCS_Rank>
561                 

$$$$
ligprep_h3d.sdf:1246_11
  -OEChem-08212117123D

 55 60  0     1  0  0  0  0  0999 V2000
  -20.5887   -4.9273  -30.0189 C   0  0  0  0  0  0  0  0  0  0  0  0
  -21.5545   -4.2598  -30.7765 C   0  0  0  0  0  0  0  0  0  0  0  0
  -20.7494   -4.9863  -28.6148 C   0  0  0  0  0  0  0  0  0  0  0  0
  -21.8718   -4.4359  -27.9584 C   0  0  0  0  0  0  0  0  0  0  0  0
  -22.6253   -3.6893  -30.1227 C   0  0  0  0  0  0  0  0  0  0  0  0
  -22.8219   -3.7437  -28.7435 C   0  0  0  0  0  0  0  0  0  0  0  0
  -21.7877   -3.9538  -32.1304 C   0  0  0  0  0  0  0  0  0  0  0  0
  -20.9318   -4.3354  -33.2683 C   0  0  0  0  0  0  0  0  0  0  0  0
  -20.0893   -5.3838  -34.8829 C   0  0  0  0  0  0  0  0  0  0  0  0
  -18.5623   -6.0423  -25.6779 C   0  0  0  0  0  0  0  0  0  0  0  0
  -18.8975   -3.6713  -26.5852 C   0  0  0  0  0  0  0  0  0  0  0  0
  -16.6936   -4.7572  -26.2265 C   0  0  0  0  0  0  0  0  0  0  0  0
  -19.6960   -5.6953  -27.8079 C   0  0  0  0  0  0  0  0  0  0  0  0
  -23.3519   -4.6745  -25.9949 C   0  0  0  0  0  0  0  0  0  0  0  0
  -23.4604   -3.7857  -24.7560 C   0  0  2  0  0  0  0  0  0  0  0  0
  -20.9474   -4.0759  -24.3989 C   0  0  1  0  0  0  0  0  0  0  0  0
  -20.8990   -4.9783  -25.6848 C   0  0  2  0  0  0  0  0  0  0  0  0
  -22.3533   -4.1281  -23.7469 C   0  0  1  0  0  0  0  0  0  0  0  0
  -19.5059   -5.0566  -26.4091 C   0  0  1  0  0  0  0  0  0  0  0  0
  -19.9415   -6.4899  -35.8371 C   0  0  0  0  0  0  0  0  0  0  0  0
  -24.8503   -3.9256  -24.1258 C   0  0  0  0  0  0  0  0  0  0  0  0
  -19.8787   -4.4260  -23.3550 C   0  0  0  0  0  0  0  0  0  0  0  0
  -22.9088   -3.2475  -32.3050 N   0  0  0  0  0  0  0  0  0  0  0  0
  -19.9478   -3.5868  -33.7089 N   0  0  0  0  0  0  0  0  0  0  0  0
  -19.3937   -4.2765  -34.7711 N   0  0  0  0  0  0  0  0  0  0  0  0
  -17.2518   -5.9209  -25.8976 N   0  5  0  0  0  0  0  0  0  0  0  0
  -17.5218   -3.6713  -26.4935 N   0  0  0  0  0  0  0  0  0  0  0  0
  -22.0090   -4.5450  -26.5751 N   0  0  1  0  0  0  0  0  0  0  0  0
  -19.0333   -6.9744  -25.0237 O   0  0  0  0  0  0  0  0  0  0  0  0
  -19.5425   -2.6591  -26.8482 O   0  0  0  0  0  0  0  0  0  0  0  0
  -15.4722   -4.6012  -26.3089 O   0  0  0  0  0  0  0  0  0  0  0  0
  -23.4355   -3.0783  -31.0299 O   0  0  0  0  0  0  0  0  0  0  0  0
  -21.0863   -5.4956  -33.9630 O   0  0  0  0  0  0  0  0  0  0  0  0
  -22.4333   -3.1878  -22.6754 O   0  0  0  0  0  0  0  0  0  0  0  0
  -23.8466   -3.0670  -28.2081 F   0  0  0  0  0  0  0  0  0  0  0  0
  -19.7256   -5.3820  -30.4967 H   0  0  0  0  0  0  0  0  0  0  0  0
  -19.9922   -6.7493  -27.7174 H   0  0  0  0  0  0  0  0  0  0  0  0
  -18.7455   -5.6806  -28.3584 H   0  0  0  0  0  0  0  0  0  0  0  0
  -23.5043   -5.7258  -25.7134 H   0  0  0  0  0  0  0  0  0  0  0  0
  -24.1723   -4.4539  -26.6808 H   0  0  0  0  0  0  0  0  0  0  0  0
  -23.3541   -2.7347  -25.0599 H   0  0  0  0  0  0  0  0  0  0  0  0
  -20.7644   -3.0314  -24.6828 H   0  0  0  0  0  0  0  0  0  0  0  0
  -21.1601   -5.9977  -25.3672 H   0  0  0  0  0  0  0  0  0  0  0  0
  -22.5341   -5.1277  -23.3300 H   0  0  0  0  0  0  0  0  0  0  0  0
  -19.2545   -7.2663  -35.4541 H   0  0  0  0  0  0  0  0  0  0  0  0
  -20.9051   -6.9853  -36.0609 H   0  0  0  0  0  0  0  0  0  0  0  0
  -19.5455   -6.1537  -36.8141 H   0  0  0  0  0  0  0  0  0  0  0  0
  -25.0035   -4.9536  -23.8074 H   0  0  0  0  0  0  0  0  0  0  0  0
  -25.6094   -3.6571  -24.8559 H   0  0  0  0  0  0  0  0  0  0  0  0
  -24.9276   -3.2659  -23.2653 H   0  0  0  0  0  0  0  0  0  0  0  0
  -20.0098   -5.4555  -23.0338 H   0  0  0  0  0  0  0  0  0  0  0  0
  -19.9782   -3.7642  -22.4992 H   0  0  0  0  0  0  0  0  0  0  0  0
  -18.8918   -4.3060  -23.7930 H   0  0  0  0  0  0  0  0  0  0  0  0
  -17.0575   -2.7848  -26.6708 H   0  0  0  0  0  0  0  0  0  0  0  0
  -22.3016   -2.3123  -23.0693 H   0  0  0  0  0  0  0  0  0  0  0  0
  1  2  2  0  0  0  0
  1  3  1  0  0  0  0
  2  5  1  0  0  0  0
  2  7  1  0  0  0  0
  3  4  2  0  0  0  0
  3 13  1  0  0  0  0
  4  6  1  0  0  0  0
  4 28  1  0  0  0  0
  5  6  2  0  0  0  0
  5 32  1  0  0  0  0
  6 35  1  0  0  0  0
  7  8  1  0  0  0  0
  7 23  2  0  0  0  0
  8 24  2  0  0  0  0
  8 33  1  0  0  0  0
  9 20  1  0  0  0  0
  9 25  2  0  0  0  0
  9 33  1  0  0  0  0
 10 19  1  0  0  0  0
 10 26  1  0  0  0  0
 10 29  2  0  0  0  0
 11 19  1  0  0  0  0
 11 27  1  0  0  0  0
 11 30  2  0  0  0  0
 12 26  1  0  0  0  0
 12 27  1  0  0  0  0
 12 31  2  0  0  0  0
 13 19  1  0  0  0  0
 14 15  1  0  0  0  0
 14 28  1  0  0  0  0
 15 18  1  0  0  0  0
 15 21  1  0  0  0  0
 16 17  1  0  0  0  0
 16 18  1  0  0  0  0
 16 22  1  0  0  0  0
 17 19  1  0  0  0  0
 17 28  1  0  0  0  0
 18 34  1  0  0  0  0
 23 32  1  0  0  0  0
 24 25  1  0  0  0  0
  1 36  1  0  0  0  0
 13 37  1  0  0  0  0
 13 38  1  0  0  0  0
 14 39  1  0  0  0  0
 14 40  1  0  0  0  0
 15 41  1  0  0  0  0
 16 42  1  0  0  0  0
 17 43  1  0  0  0  0
 18 44  1  0  0  0  0
 20 45  1  0  0  0  0
 20 46  1  0  0  0  0
 20 47  1  0  0  0  0
 21 48  1  0  0  0  0
 21 49  1  0  0  0  0
 21 50  1  0  0  0  0
 22 51  1  0  0  0  0
 22 52  1  0  0  0  0
 22 53  1  0  0  0  0
 27 54  1  0  0  0  0
 34 55  1  0  0  0  0
M  CHG  1  26  -1
M  END
> <SMILES>
C[C@@H]1CN2[C@H]([C@H](C)[C@H]1O)C1(Cc3cc4c(noc4c(c32)F)-c2nnc(o2)C)C(=O)NC(=O)NC1=O

> <FORMATTED_ID>
H3D-008489

> <MOLFORMULA>
C22H21FN6O6

> <Exact Mass>
484.15

> <XLogP>
0.9

> <TPSA_NOPS>
164.3

> <s_m_source_file>
ligprep_h3d.sdf

> <i_m_source_file_index>
1246

> <i_lp_mmshare_version>
55123

> <i_f3d_flags>
0

> <s_epik_input>
Tz1DMVtOSF1DKD1PKVtOSF1DKD1PKUMxMltDQEBIXTNOKFtDSDJdW0NAQEhdKFtDSDNdKVtDQEhdKFtPSF0pW0NASF0zW0NIM10pYzRjKFtDSDJdMilbY0hdYzVjKGM0RilvbmM1LWM2bm5jKG82KVtDSDNd

> <s_epik_cmdline>
J2VwaWtfcHl0aG9uJywgJy1waHQnLCAnMC41JywgJy1waCcsICc3LjUnLCAnLXRuJywgJzgnLCAnLW1hJywgJzUwMCcsICctaW1hZScsICc8aW5maWxlLm1hZT4nLCAnLW9tYWUnLCAnPG91dGZpbGUubWFlPic=

> <r_lp_tautomer_probability>
1

> <r_epik_Ionization_Penalty>
0.63215

> <r_epik_Ionization_Penalty_Charging>
0.632139

> <r_epik_Ionization_Penalty_Neutral>
1.08206e-05

> <r_epik_State_Penalty>
0.649084

> <r_epik_Charging_Adjusted_Penalty>
1.28122

> <i_epik_Tot_Q>
-1

> <i_epik_Tot_abs_Q>
1

> <s_lp_Force_Field>
S-OPLS

> <r_lp_Energy>
56.2469

> <b_lp_Chiralities_Consistent>
1

> <s_lp_Variant>
ligprep_h3d.sdf:1246-2

> <ROCS_ShapeQuery>
_7L13

> <ROCS_TanimotoCombo>
0.715 

> <ROCS_ShapeTanimoto>
0.620 

> <ROCS_ColorTanimoto>
0.096 

> <ROCS_RefTversky>
0.768 

> <ROCS_RefColorTversky>
0.244 

> <ROCS_RefTverskyCombo>
1.012 

> <ROCS_FitTversky>
0.763 

> <ROCS_FitColorTversky>
0.136 

> <ROCS_FitTverskyCombo>
0.898 

> <ROCS_ColorScore>
-2.297

> <ROCS_Overlap>
1275.861

> <ROCS_Rank>
562                 

$$$$
ligprep_h3d.sdf:4788_887
  -OEChem-08212117123D

 67 71  0     1  0  0  0  0  0999 V2000
  -16.2259   -4.1913  -23.7907 C   0  0  0  0  0  0  0  0  0  0  0  0
  -25.1088   -4.4878  -22.6875 C   0  0  0  0  0  0  0  0  0  0  0  0
  -16.5703   -5.4863  -24.1777 C   0  0  0  0  0  0  0  0  0  0  0  0
  -16.7652   -3.0953  -24.4644 C   0  0  0  0  0  0  0  0  0  0  0  0
  -23.7804   -4.1256  -22.9102 C   0  0  0  0  0  0  0  0  0  0  0  0
  -25.9023   -4.9173  -23.7513 C   0  0  0  0  0  0  0  0  0  0  0  0
  -17.4539   -5.6855  -25.2385 C   0  0  0  0  0  0  0  0  0  0  0  0
  -17.6488   -3.2945  -25.5252 C   0  0  0  0  0  0  0  0  0  0  0  0
  -23.2454   -4.1927  -24.1966 C   0  0  0  0  0  0  0  0  0  0  0  0
  -25.3674   -4.9843  -25.0377 C   0  0  0  0  0  0  0  0  0  0  0  0
  -17.9932   -4.5896  -25.9122 C   0  0  0  0  0  0  0  0  0  0  0  0
  -24.0390   -4.6220  -25.2604 C   0  0  0  0  0  0  0  0  0  0  0  0
  -21.6941   -4.4715  -31.8175 C   0  0  0  0  0  0  0  0  0  0  0  0
  -20.6717   -4.0111  -34.0308 C   0  0  0  0  0  0  0  0  0  0  0  0
  -20.9394   -6.3877  -33.2014 C   0  0  0  0  0  0  0  0  0  0  0  0
  -19.7092   -4.5001  -35.1082 C   0  0  0  0  0  0  0  0  0  0  0  0
  -19.9756   -6.8681  -34.2813 C   0  0  0  0  0  0  0  0  0  0  0  0
  -22.2920   -4.2994  -29.4172 C   0  0  0  0  0  0  0  0  0  0  0  0
  -19.3950   -5.9781  -27.5714 C   0  0  0  0  0  0  0  0  0  0  0  0
  -19.3350   -3.9170  -28.0078 C   0  0  0  0  0  0  0  0  0  0  0  0
  -20.1748   -5.3454  -29.9837 C   0  0  0  0  0  0  0  0  0  0  0  0
  -20.6678   -4.9333  -32.8090 C   0  0  2  0  0  0  0  0  0  0  0  0
  -21.7666   -5.0181  -28.1817 C   0  0  1  0  0  0  0  0  0  0  0  0
  -19.9907   -5.9493  -35.5004 C   0  0  2  0  0  0  0  0  0  0  0  0
  -20.2599   -5.0741  -28.4791 C   0  0  0  0  0  0  0  0  0  0  0  0
  -19.4475   -7.5289  -37.1505 C   0  0  0  0  0  0  0  0  0  0  0  0
  -22.1631   -4.3433  -26.8819 C   0  0  0  0  0  0  0  0  0  0  0  0
  -18.8813   -4.7894  -26.9782 N   0  0  0  0  0  0  0  0  0  0  0  0
  -21.3880   -4.7026  -30.4861 N   0  0  0  0  0  0  0  0  0  0  0  0
  -23.5036   -4.6895  -26.5488 N   0  0  0  0  0  0  0  0  0  0  0  0
  -22.7274   -3.9210  -32.2019 O   0  0  0  0  0  0  0  0  0  0  0  0
  -19.0004   -6.3972  -36.4195 O   0  0  0  0  0  0  0  0  0  0  0  0
  -15.5376   -4.0363  -22.9648 H   0  0  0  0  0  0  0  0  0  0  0  0
  -25.5253   -4.4354  -21.6857 H   0  0  0  0  0  0  0  0  0  0  0  0
  -16.1504   -6.3393  -23.6533 H   0  0  0  0  0  0  0  0  0  0  0  0
  -16.4968   -2.0869  -24.1629 H   0  0  0  0  0  0  0  0  0  0  0  0
  -23.1628   -3.7912  -22.0820 H   0  0  0  0  0  0  0  0  0  0  0  0
  -26.9369   -5.1993  -23.5776 H   0  0  0  0  0  0  0  0  0  0  0  0
  -17.7158   -6.6987  -25.5323 H   0  0  0  0  0  0  0  0  0  0  0  0
  -18.0629   -2.4329  -26.0427 H   0  0  0  0  0  0  0  0  0  0  0  0
  -22.2092   -3.9080  -24.3596 H   0  0  0  0  0  0  0  0  0  0  0  0
  -25.9953   -5.3207  -25.8590 H   0  0  0  0  0  0  0  0  0  0  0  0
  -20.3691   -3.0142  -33.7096 H   0  0  0  0  0  0  0  0  0  0  0  0
  -21.6741   -3.9322  -34.4492 H   0  0  0  0  0  0  0  0  0  0  0  0
  -21.9648   -6.5026  -33.5540 H   0  0  0  0  0  0  0  0  0  0  0  0
  -20.8251   -7.0129  -32.3144 H   0  0  0  0  0  0  0  0  0  0  0  0
  -19.7944   -3.8621  -35.9926 H   0  0  0  0  0  0  0  0  0  0  0  0
  -18.6862   -4.4100  -34.7313 H   0  0  0  0  0  0  0  0  0  0  0  0
  -18.9671   -6.9046  -33.8563 H   0  0  0  0  0  0  0  0  0  0  0  0
  -20.2352   -7.8866  -34.5874 H   0  0  0  0  0  0  0  0  0  0  0  0
  -23.2867   -4.6649  -29.6895 H   0  0  0  0  0  0  0  0  0  0  0  0
  -22.3330   -3.2123  -29.3240 H   0  0  0  0  0  0  0  0  0  0  0  0
  -19.9420   -6.5970  -26.8477 H   0  0  0  0  0  0  0  0  0  0  0  0
  -18.6216   -6.5835  -28.0575 H   0  0  0  0  0  0  0  0  0  0  0  0
  -18.5450   -3.6177  -28.6987 H   0  0  0  0  0  0  0  0  0  0  0  0
  -19.8489   -3.0376  -27.6096 H   0  0  0  0  0  0  0  0  0  0  0  0
  -19.3158   -4.8432  -30.4412 H   0  0  0  0  0  0  0  0  0  0  0  0
  -20.1573   -6.4068  -30.2472 H   0  0  0  0  0  0  0  0  0  0  0  0
  -19.7123   -4.8694  -32.3116 H   0  0  0  0  0  0  0  0  0  0  0  0
  -22.2010   -6.0674  -28.1663 H   0  0  0  0  0  0  0  0  0  0  0  0
  -20.9594   -6.0162  -36.0016 H   0  0  0  0  0  0  0  0  0  0  0  0
  -18.6662   -7.8469  -37.8451 H   0  0  0  0  0  0  0  0  0  0  0  0
  -20.3566   -7.2726  -37.7004 H   0  0  0  0  0  0  0  0  0  0  0  0
  -19.6632   -8.3408  -36.4519 H   0  0  0  0  0  0  0  0  0  0  0  0
  -21.4744   -4.6923  -26.1145 H   0  0  0  0  0  0  0  0  0  0  0  0
  -22.0705   -3.2695  -27.0349 H   0  0  0  0  0  0  0  0  0  0  0  0
  -24.1329   -5.0102  -27.2894 H   0  0  0  0  0  0  0  0  0  0  0  0
  1  3  2  0  0  0  0
  1  4  1  0  0  0  0
  2  5  2  0  0  0  0
  2  6  1  0  0  0  0
  3  7  1  0  0  0  0
  4  8  2  0  0  0  0
  5  9  1  0  0  0  0
  6 10  2  0  0  0  0
  7 11  2  0  0  0  0
  8 11  1  0  0  0  0
  9 12  2  0  0  0  0
 10 12  1  0  0  0  0
 11 28  1  0  0  0  0
 12 30  1  0  0  0  0
 13 22  1  0  0  0  0
 13 29  1  0  0  0  0
 13 31  2  0  0  0  0
 14 16  1  0  0  0  0
 14 22  1  0  0  0  0
 15 17  1  0  0  0  0
 15 22  1  0  0  0  0
 16 24  1  0  0  0  0
 17 24  1  0  0  0  0
 18 23  1  0  0  0  0
 18 29  1  0  0  0  0
 19 25  1  0  0  0  0
 19 28  1  0  0  0  0
 20 25  1  0  0  0  0
 20 28  1  0  0  0  0
 21 25  1  0  0  0  0
 21 29  1  0  0  0  0
 23 25  1  0  0  0  0
 23 27  1  0  0  0  0
 24 32  1  0  0  0  0
 26 32  1  0  0  0  0
 27 30  1  0  0  0  0
  1 33  1  0  0  0  0
  2 34  1  0  0  0  0
  3 35  1  0  0  0  0
  4 36  1  0  0  0  0
  5 37  1  0  0  0  0
  6 38  1  0  0  0  0
  7 39  1  0  0  0  0
  8 40  1  0  0  0  0
  9 41  1  0  0  0  0
 10 42  1  0  0  0  0
 14 43  1  0  0  0  0
 14 44  1  0  0  0  0
 15 45  1  0  0  0  0
 15 46  1  0  0  0  0
 16 47  1  0  0  0  0
 16 48  1  0  0  0  0
 17 49  1  0  0  0  0
 17 50  1  0  0  0  0
 18 51  1  0  0  0  0
 18 52  1  0  0  0  0
 19 53  1  0  0  0  0
 19 54  1  0  0  0  0
 20 55  1  0  0  0  0
 20 56  1  0  0  0  0
 21 57  1  0  0  0  0
 21 58  1  0  0  0  0
 22 59  1  0  0  0  0
 23 60  1  0  0  0  0
 24 61  1  0  0  0  0
 26 62  1  0  0  0  0
 26 63  1  0  0  0  0
 26 64  1  0  0  0  0
 27 65  1  0  0  0  0
 27 66  1  0  0  0  0
 30 67  1  0  0  0  0
M  END
> <SMILES>
COC1CCC(CC1)C(=O)N1CC(CNc2ccccc2)C2(C1)CN(C2)c1ccccc1

> <FORMATTED_ID>
H3D-007429

> <MOLFORMULA>
C27H35N3O2

> <Exact Mass>
433.27

> <XLogP>
4.03

> <TPSA_NOPS>
44.8

> <s_m_source_file>
ligprep_h3d.sdf

> <i_m_source_file_index>
4788

> <i_lp_mmshare_version>
55123

> <i_f3d_flags>
0

> <s_epik_input>
W0NIM11PW0NAQEhdMVtDSDJdW0NIMl1bQ0BIXShbQ0gyXVtDSDJdMSlDKD1PKU4oW0NIMl0yKVtDSDJdW0NASF0oW0NIMl1bTkhdYzNbY0hdW2NIXVtjSF1bY0hdW2NIXTMpQzI0W0NIMl1OKFtDSDJdNCljNVtjSF1bY0hdW2NIXVtjSF1bY0hdNQ==

> <s_epik_cmdline>
J2VwaWtfcHl0aG9uJywgJy1waHQnLCAnMC41JywgJy1waCcsICc3LjUnLCAnLXRuJywgJzgnLCAnLW1hJywgJzUwMCcsICctaW1hZScsICc8aW5maWxlLm1hZT4nLCAnLW9tYWUnLCAnPG91dGZpbGUubWFlPic=

> <r_lp_tautomer_probability>
1

> <r_epik_Ionization_Penalty>
0.00302247

> <r_epik_Ionization_Penalty_Charging>
0

> <r_epik_Ionization_Penalty_Neutral>
0.00302247

> <r_epik_State_Penalty>
-0

> <r_epik_Charging_Adjusted_Penalty>
0

> <i_epik_Tot_Q>
0

> <i_epik_Tot_abs_Q>
0

> <s_lp_Force_Field>
S-OPLS

> <r_lp_Energy>
42.6449

> <b_lp_Chiralities_Consistent>
1

> <s_lp_Variant>
ligprep_h3d.sdf:4788-1

> <ROCS_ShapeQuery>
_7L13

> <ROCS_TanimotoCombo>
0.754 

> <ROCS_ShapeTanimoto>
0.690 

> <ROCS_ColorTanimoto>
0.063 

> <ROCS_RefTversky>
0.768 

> <ROCS_RefColorTversky>
0.113 

> <ROCS_RefTverskyCombo>
0.881 

> <ROCS_FitTversky>
0.872 

> <ROCS_FitColorTversky>
0.126 

> <ROCS_FitTverskyCombo>
0.998 

> <ROCS_ColorScore>
-1.015

> <ROCS_Overlap>
1266.908

> <ROCS_Rank>
563                 

$$$$
ligprep_h3d.sdf:463_733
  -OEChem-08212117123D

 52 55  0     0  0  0  0  0  0999 V2000
  -23.3746   -3.6498  -24.0016 C   0  0  0  0  0  0  0  0  0  0  0  0
  -24.5238   -5.4234  -25.1723 C   0  0  0  0  0  0  0  0  0  0  0  0
  -24.3451   -3.6818  -23.0003 C   0  0  0  0  0  0  0  0  0  0  0  0
  -25.4944   -5.4554  -24.1710 C   0  0  0  0  0  0  0  0  0  0  0  0
  -22.9814   -3.1824  -31.5766 C   0  0  0  0  0  0  0  0  0  0  0  0
  -23.4640   -4.5206  -25.0876 C   0  0  0  0  0  0  0  0  0  0  0  0
  -25.4050   -4.5846  -23.0850 C   0  0  0  0  0  0  0  0  0  0  0  0
  -23.1598   -3.1215  -30.2161 C   0  0  0  0  0  0  0  0  0  0  0  0
  -21.8788   -4.0404  -31.7489 C   0  0  0  0  0  0  0  0  0  0  0  0
  -21.1780   -4.7356  -25.7810 C   0  0  0  0  0  0  0  0  0  0  0  0
  -22.4521   -4.4876  -26.1321 C   0  0  0  0  0  0  0  0  0  0  0  0
  -20.1325   -4.7106  -26.8281 C   0  0  0  0  0  0  0  0  0  0  0  0
  -21.9532   -4.1801  -28.3442 C   0  0  0  0  0  0  0  0  0  0  0  0
  -18.6619   -6.5682  -36.3479 C   0  0  0  0  0  0  0  0  0  0  0  0
  -20.1916   -7.9471  -35.1001 C   0  0  0  0  0  0  0  0  0  0  0  0
  -17.8293   -7.8117  -36.6467 C   0  0  0  0  0  0  0  0  0  0  0  0
  -19.3223   -9.1579  -35.4273 C   0  0  0  0  0  0  0  0  0  0  0  0
  -24.1490   -2.3906  -29.4022 C   0  0  0  0  0  0  0  0  0  0  0  0
  -20.1780   -5.5579  -34.7665 C   0  0  0  0  0  0  0  0  0  0  0  0
  -20.5757   -5.4956  -33.3013 C   0  0  0  0  0  0  0  0  0  0  0  0
  -21.3909   -4.4920  -30.5905 N   0  0  0  0  0  0  0  0  0  0  0  0
  -22.8611   -4.1977  -27.4158 N   0  0  0  0  0  0  0  0  0  0  0  0
  -22.1907   -3.9156  -29.6772 N   0  0  0  0  0  0  0  0  0  0  0  0
  -20.6109   -4.4234  -28.0903 N   0  0  0  0  0  0  0  0  0  0  0  0
  -19.3637   -6.7335  -35.0675 N   0  0  0  0  0  0  0  0  0  0  0  0
  -21.3936   -4.3486  -33.0134 N   0  0  0  0  0  0  0  0  0  0  0  0
  -18.9570   -4.9314  -26.5565 O   0  0  0  0  0  0  0  0  0  0  0  0
  -18.6616   -8.9717  -36.6796 O   0  0  0  0  0  0  0  0  0  0  0  0
  -26.3361   -4.6166  -22.1226 F   0  0  0  0  0  0  0  0  0  0  0  0
  -22.5540   -2.9407  -23.9216 H   0  0  0  0  0  0  0  0  0  0  0  0
  -24.6074   -6.1086  -26.0125 H   0  0  0  0  0  0  0  0  0  0  0  0
  -24.2758   -3.0041  -22.1547 H   0  0  0  0  0  0  0  0  0  0  0  0
  -26.3195   -6.1586  -24.2364 H   0  0  0  0  0  0  0  0  0  0  0  0
  -23.5687   -2.6762  -32.3300 H   0  0  0  0  0  0  0  0  0  0  0  0
  -20.8730   -4.9592  -24.7647 H   0  0  0  0  0  0  0  0  0  0  0  0
  -17.9987   -5.6965  -36.3081 H   0  0  0  0  0  0  0  0  0  0  0  0
  -19.3841   -6.4097  -37.1594 H   0  0  0  0  0  0  0  0  0  0  0  0
  -20.9807   -7.8491  -35.8570 H   0  0  0  0  0  0  0  0  0  0  0  0
  -20.6710   -8.1068  -34.1276 H   0  0  0  0  0  0  0  0  0  0  0  0
  -17.3544   -7.7142  -37.6284 H   0  0  0  0  0  0  0  0  0  0  0  0
  -17.0335   -7.9528  -35.9054 H   0  0  0  0  0  0  0  0  0  0  0  0
  -18.5769   -9.3454  -34.6447 H   0  0  0  0  0  0  0  0  0  0  0  0
  -19.9463  -10.0534  -35.5108 H   0  0  0  0  0  0  0  0  0  0  0  0
  -25.0515   -3.0002  -29.2295 H   0  0  0  0  0  0  0  0  0  0  0  0
  -23.7449   -2.1049  -28.4155 H   0  0  0  0  0  0  0  0  0  0  0  0
  -24.4683   -1.4497  -29.8834 H   0  0  0  0  0  0  0  0  0  0  0  0
  -19.6007   -4.6759  -35.0615 H   0  0  0  0  0  0  0  0  0  0  0  0
  -21.0712   -5.6162  -35.3963 H   0  0  0  0  0  0  0  0  0  0  0  0
  -21.1574   -6.3816  -33.0287 H   0  0  0  0  0  0  0  0  0  0  0  0
  -19.6963   -5.4442  -32.6513 H   0  0  0  0  0  0  0  0  0  0  0  0
  -19.9536   -4.3888  -28.8652 H   0  0  0  0  0  0  0  0  0  0  0  0
  -21.6330   -3.7218  -33.7773 H   0  0  0  0  0  0  0  0  0  0  0  0
  1  3  1  0  0  0  0
  1  6  2  0  0  0  0
  2  4  2  0  0  0  0
  2  6  1  0  0  0  0
  3  7  2  0  0  0  0
  4  7  1  0  0  0  0
  5  8  2  0  0  0  0
  5  9  1  0  0  0  0
  6 11  1  0  0  0  0
  7 29  1  0  0  0  0
  8 18  1  0  0  0  0
  8 23  1  0  0  0  0
  9 21  2  0  0  0  0
  9 26  1  0  0  0  0
 10 11  2  0  0  0  0
 10 12  1  0  0  0  0
 11 22  1  0  0  0  0
 12 24  1  0  0  0  0
 12 27  2  0  0  0  0
 13 22  2  0  0  0  0
 13 23  1  0  0  0  0
 13 24  1  0  0  0  0
 14 16  1  0  0  0  0
 14 25  1  0  0  0  0
 15 17  1  0  0  0  0
 15 25  1  0  0  0  0
 16 28  1  0  0  0  0
 17 28  1  0  0  0  0
 19 20  1  0  0  0  0
 19 25  1  0  0  0  0
 20 26  1  0  0  0  0
 21 23  1  0  0  0  0
  1 30  1  0  0  0  0
  2 31  1  0  0  0  0
  3 32  1  0  0  0  0
  4 33  1  0  0  0  0
  5 34  1  0  0  0  0
 10 35  1  0  0  0  0
 14 36  1  0  0  0  0
 14 37  1  0  0  0  0
 15 38  1  0  0  0  0
 15 39  1  0  0  0  0
 16 40  1  0  0  0  0
 16 41  1  0  0  0  0
 17 42  1  0  0  0  0
 17 43  1  0  0  0  0
 18 44  1  0  0  0  0
 18 45  1  0  0  0  0
 18 46  1  0  0  0  0
 19 47  1  0  0  0  0
 19 48  1  0  0  0  0
 20 49  1  0  0  0  0
 20 50  1  0  0  0  0
 24 51  1  0  0  0  0
 26 52  1  0  0  0  0
M  END
> <SMILES>
Cc1cc(nn1C1=NC(=CC(=O)N1)c1ccc(cc1)F)NCCN1CCOCC1

> <FORMATTED_ID>
H3D-004018

> <MOLFORMULA>
C20H23FN6O2

> <Exact Mass>
398.19

> <XLogP>
1.64

> <TPSA_NOPS>
83.8

> <s_m_source_file>
ligprep_h3d.sdf

> <i_m_source_file_index>
463

> <i_lp_mmshare_version>
55123

> <i_f3d_flags>
0

> <s_epik_input>
W0NIMl0xW0NIMl1PW0NIMl1bQ0gyXU4xW0NIMl1bQ0gyXVtOSF1jKFtjSF1jMltDSDNdKW5uMi1jM25jKFtjSF1jKD1PKVtuSF0zKS1jNFtjSF1bY0hdYyhGKVtjSF1bY0hdNA==

> <s_epik_cmdline>
J2VwaWtfcHl0aG9uJywgJy1waHQnLCAnMC41JywgJy1waCcsICc3LjUnLCAnLXRuJywgJzgnLCAnLW1hJywgJzUwMCcsICctaW1hZScsICc8aW5maWxlLm1hZT4nLCAnLW9tYWUnLCAnPG91dGZpbGUubWFlPic=

> <r_lp_tautomer_probability>
1

> <r_epik_Ionization_Penalty>
0.461799

> <r_epik_Ionization_Penalty_Charging>
0.173958

> <r_epik_Ionization_Penalty_Neutral>
0.287841

> <r_epik_State_Penalty>
0.501998

> <r_epik_Charging_Adjusted_Penalty>
0.675955

> <i_epik_Tot_Q>
0

> <i_epik_Tot_abs_Q>
0

> <s_lp_Force_Field>
S-OPLS

> <r_lp_Energy>
24.9267

> <b_lp_Chiralities_Consistent>
1

> <s_lp_Variant>
ligprep_h3d.sdf:463-1

> <ROCS_ShapeQuery>
_7L13

> <ROCS_TanimotoCombo>
0.892 

> <ROCS_ShapeTanimoto>
0.728 

> <ROCS_ColorTanimoto>
0.164 

> <ROCS_RefTversky>
0.768 

> <ROCS_RefColorTversky>
0.310 

> <ROCS_RefTverskyCombo>
1.078 

> <ROCS_FitTversky>
0.933 

> <ROCS_FitColorTversky>
0.259 

> <ROCS_FitTverskyCombo>
1.192 

> <ROCS_ColorScore>
-2.821

> <ROCS_Overlap>
1262.858

> <ROCS_Rank>
564                 

$$$$
ligprep_h3d.sdf:1067_1950
  -OEChem-08212117123D

 63 68  0     1  0  0  0  0  0999 V2000
  -21.0107   -5.1638  -29.5035 C   0  0  0  0  0  0  0  0  0  0  0  0
  -21.7664   -4.3866  -30.3839 C   0  0  0  0  0  0  0  0  0  0  0  0
  -21.1182   -4.9167  -28.1138 C   0  0  0  0  0  0  0  0  0  0  0  0
  -21.9916   -3.9396  -27.5801 C   0  0  0  0  0  0  0  0  0  0  0  0
  -22.5896   -3.4142  -29.8599 C   0  0  0  0  0  0  0  0  0  0  0  0
  -22.7312   -3.1554  -28.4963 C   0  0  0  0  0  0  0  0  0  0  0  0
  -21.9600   -4.2766  -31.7735 C   0  0  0  0  0  0  0  0  0  0  0  0
  -18.9037   -3.8609  -26.2439 C   0  0  0  0  0  0  0  0  0  0  0  0
  -19.2668   -6.0635  -25.0118 C   0  0  0  0  0  0  0  0  0  0  0  0
  -17.0765   -5.2308  -25.8371 C   0  0  0  0  0  0  0  0  0  0  0  0
  -21.8709   -5.4059  -33.9584 C   0  0  0  0  0  0  0  0  0  0  0  0
  -20.2786   -5.7576  -27.1898 C   0  0  0  0  0  0  0  0  0  0  0  0
  -23.0414   -2.7822  -25.6458 C   0  0  0  0  0  0  0  0  0  0  0  0
  -21.2121   -4.4713  -25.2360 C   0  0  2  0  0  0  0  0  0  0  0  0
  -20.0166   -5.6393  -32.5842 C   0  0  1  0  0  0  0  0  0  0  0  0
  -23.4126   -3.0927  -24.1928 C   0  0  1  0  0  0  0  0  0  0  0  0
  -21.0408   -3.5353  -24.0036 C   0  0  2  0  0  0  0  0  0  0  0  0
  -20.0625   -6.7648  -33.6116 C   0  0  1  0  0  0  0  0  0  0  0  0
  -19.8951   -4.9962  -25.8968 C   0  0  2  0  0  0  0  0  0  0  0  0
  -24.4105   -4.2432  -24.0745 C   0  0  0  0  0  0  0  0  0  0  0  0
  -20.0846   -4.0145  -22.9186 C   0  0  0  0  0  0  0  0  0  0  0  0
  -20.5205   -8.0950  -33.0274 C   0  0  0  0  0  0  0  0  0  0  0  0
  -18.7675   -4.9497  -35.2370 C   0  0  0  0  0  0  0  0  0  0  0  0
  -18.9248   -4.6218  -32.9152 C   0  0  0  0  0  0  0  0  0  0  0  0
  -22.8304   -3.3130  -32.0893 N   0  0  0  0  0  0  0  0  0  0  0  0
  -17.6466   -4.2256  -26.5027 N   0  5  0  0  0  0  0  0  0  0  0  0
  -17.8873   -6.0668  -25.0715 N   0  0  0  0  0  0  0  0  0  0  0  0
  -22.0957   -3.7600  -26.1985 N   0  0  3  0  0  0  0  0  0  0  0  0
  -21.3320   -5.0584  -32.7230 N   0  0  0  0  0  0  0  0  0  0  0  0
  -19.2987   -2.7035  -26.3827 O   0  0  0  0  0  0  0  0  0  0  0  0
  -19.9108   -6.8904  -24.3699 O   0  0  0  0  0  0  0  0  0  0  0  0
  -15.8657   -5.4641  -25.8847 O   0  0  0  0  0  0  0  0  0  0  0  0
  -22.9042   -4.9967  -34.4712 O   0  0  0  0  0  0  0  0  0  0  0  0
  -23.2263   -2.7668  -30.8740 O   0  0  0  0  0  0  0  0  0  0  0  0
  -21.0376   -6.3177  -34.5677 O   0  0  0  0  0  0  0  0  0  0  0  0
  -22.3024   -3.3674  -23.3434 O   0  0  0  0  0  0  0  0  0  0  0  0
  -19.1920   -4.0787  -34.1941 O   0  0  0  0  0  0  0  0  0  0  0  0
  -23.4831   -2.1105  -28.1302 F   0  0  0  0  0  0  0  0  0  0  0  0
  -20.3459   -5.9362  -29.8792 H   0  0  0  0  0  0  0  0  0  0  0  0
  -20.8520   -6.6641  -26.9526 H   0  0  0  0  0  0  0  0  0  0  0  0
  -19.3731   -6.0915  -27.7136 H   0  0  0  0  0  0  0  0  0  0  0  0
  -23.9541   -2.8139  -26.2758 H   0  0  0  0  0  0  0  0  0  0  0  0
  -22.7158   -1.7311  -25.6881 H   0  0  0  0  0  0  0  0  0  0  0  0
  -21.7975   -5.3429  -24.9014 H   0  0  0  0  0  0  0  0  0  0  0  0
  -19.8731   -6.0133  -31.5640 H   0  0  0  0  0  0  0  0  0  0  0  0
  -23.9484   -2.1798  -23.7560 H   0  0  0  0  0  0  0  0  0  0  0  0
  -20.6982   -2.5319  -24.3148 H   0  0  0  0  0  0  0  0  0  0  0  0
  -19.1054   -6.8957  -34.1278 H   0  0  0  0  0  0  0  0  0  0  0  0
  -23.9730   -5.1588  -24.4727 H   0  0  0  0  0  0  0  0  0  0  0  0
  -25.3157   -4.0109  -24.6355 H   0  0  0  0  0  0  0  0  0  0  0  0
  -24.6736   -4.4026  -23.0287 H   0  0  0  0  0  0  0  0  0  0  0  0
  -20.3783   -5.0060  -22.5737 H   0  0  0  0  0  0  0  0  0  0  0  0
  -20.1041   -3.3261  -22.0736 H   0  0  0  0  0  0  0  0  0  0  0  0
  -19.0688   -4.0633  -23.3116 H   0  0  0  0  0  0  0  0  0  0  0  0
  -21.4730   -7.9683  -32.5127 H   0  0  0  0  0  0  0  0  0  0  0  0
  -19.7811   -8.4646  -32.3167 H   0  0  0  0  0  0  0  0  0  0  0  0
  -20.6437   -8.8294  -33.8235 H   0  0  0  0  0  0  0  0  0  0  0  0
  -18.9907   -4.4956  -36.2055 H   0  0  0  0  0  0  0  0  0  0  0  0
  -19.2834   -5.9087  -35.1446 H   0  0  0  0  0  0  0  0  0  0  0  0
  -17.6898   -5.1081  -35.1511 H   0  0  0  0  0  0  0  0  0  0  0  0
  -17.9533   -5.1136  -32.9262 H   0  0  0  0  0  0  0  0  0  0  0  0
  -18.9274   -3.8234  -32.1747 H   0  0  0  0  0  0  0  0  0  0  0  0
  -17.4114   -6.7537  -24.4943 H   0  0  0  0  0  0  0  0  0  0  0  0
  1  2  2  0  0  0  0
  1  3  1  0  0  0  0
  2  5  1  0  0  0  0
  2  7  1  0  0  0  0
  3  4  2  0  0  0  0
  3 12  1  0  0  0  0
  4  6  1  0  0  0  0
  4 28  1  0  0  0  0
  5  6  2  0  0  0  0
  5 34  1  0  0  0  0
  6 38  1  0  0  0  0
  7 25  2  0  0  0  0
  7 29  1  0  0  0  0
  8 19  1  0  0  0  0
  8 26  1  0  0  0  0
  8 30  2  0  0  0  0
  9 19  1  0  0  0  0
  9 27  1  0  0  0  0
  9 31  2  0  0  0  0
 10 26  1  0  0  0  0
 10 27  1  0  0  0  0
 10 32  2  0  0  0  0
 11 29  1  0  0  0  0
 11 33  2  0  0  0  0
 11 35  1  0  0  0  0
 12 19  1  0  0  0  0
 13 16  1  0  0  0  0
 13 28  1  0  0  0  0
 14 17  1  0  0  0  0
 14 19  1  0  0  0  0
 14 28  1  0  0  0  0
 15 18  1  0  0  0  0
 15 24  1  0  0  0  0
 15 29  1  0  0  0  0
 16 20  1  0  0  0  0
 16 36  1  0  0  0  0
 17 21  1  0  0  0  0
 17 36  1  0  0  0  0
 18 22  1  0  0  0  0
 18 35  1  0  0  0  0
 23 37  1  0  0  0  0
 24 37  1  0  0  0  0
 25 34  1  0  0  0  0
  1 39  1  0  0  0  0
 12 40  1  0  0  0  0
 12 41  1  0  0  0  0
 13 42  1  0  0  0  0
 13 43  1  0  0  0  0
 14 44  1  0  0  0  0
 15 45  1  0  0  0  0
 16 46  1  0  0  0  0
 17 47  1  0  0  0  0
 18 48  1  0  0  0  0
 20 49  1  0  0  0  0
 20 50  1  0  0  0  0
 20 51  1  0  0  0  0
 21 52  1  0  0  0  0
 21 53  1  0  0  0  0
 21 54  1  0  0  0  0
 22 55  1  0  0  0  0
 22 56  1  0  0  0  0
 22 57  1  0  0  0  0
 23 58  1  0  0  0  0
 23 59  1  0  0  0  0
 23 60  1  0  0  0  0
 24 61  1  0  0  0  0
 24 62  1  0  0  0  0
 27 63  1  0  0  0  0
M  CHG  1  26  -1
M  END
> <SMILES>
COCC1[C@@H](C)OC(=O)N1c1noc2c(c3c(cc12)CC1([C@H]2[C@H](C)O[C@H](C)CN23)C(=O)NC(=O)NC1=O)F

> <FORMATTED_ID>
H3D-006629

> <MOLFORMULA>
C24H26FN5O8

> <Exact Mass>
531.18

> <XLogP>
0.72

> <TPSA_NOPS>
152.8

> <s_m_source_file>
ligprep_h3d.sdf

> <i_m_source_file_index>
1067

> <i_lp_mmshare_version>
55123

> <i_f3d_flags>
0

> <s_epik_input>
W0NIM11PW0NIMl1bQ0BASF0xW0NAQEhdKFtDSDNdKU9DKD1PKU4xYzJub2MoYzNGKWMyW2NIXWMoW0NIMl00KWMzTihbQ0gyXVtDQEBIXShbQ0gzXSlPW0NASF01W0NIM10pW0NASF01QzQ2Qyg9TylbTkhdQyg9TylbTkhdQzY9Tw==

> <s_epik_cmdline>
J2VwaWtfcHl0aG9uJywgJy1waHQnLCAnMC41JywgJy1waCcsICc3LjUnLCAnLXRuJywgJzgnLCAnLW1hJywgJzUwMCcsICctaW1hZScsICc8aW5maWxlLm1hZT4nLCAnLW9tYWUnLCAnPG91dGZpbGUubWFlPic=

> <r_lp_tautomer_probability>
1

> <r_epik_Ionization_Penalty>
0.455388

> <r_epik_Ionization_Penalty_Charging>
0.455373

> <r_epik_Ionization_Penalty_Neutral>
1.46169e-05

> <r_epik_State_Penalty>
0.458483

> <r_epik_Charging_Adjusted_Penalty>
0.913857

> <i_epik_Tot_Q>
-1

> <i_epik_Tot_abs_Q>
1

> <s_epik_Chemistry_Notes>
This compound has an ester and may undergo hydrolysis at high or low pH.

> <s_lp_Force_Field>
S-OPLS

> <r_lp_Energy>
45.3805

> <b_lp_Chiralities_Consistent>
1

> <s_lp_Variant>
ligprep_h3d.sdf:1067-2

> <ROCS_ShapeQuery>
_7L13

> <ROCS_TanimotoCombo>
0.711 

> <ROCS_ShapeTanimoto>
0.586 

> <ROCS_ColorTanimoto>
0.125 

> <ROCS_RefTversky>
0.768 

> <ROCS_RefColorTversky>
0.297 

> <ROCS_RefTverskyCombo>
1.065 

> <ROCS_FitTversky>
0.712 

> <ROCS_FitColorTversky>
0.177 

> <ROCS_FitTverskyCombo>
0.889 

> <ROCS_ColorScore>
-2.776

> <ROCS_Overlap>
1280.847

> <ROCS_Rank>
565                 

$$$$
ligprep_h3d.sdf:890_1799
  -OEChem-08212117123D

 57 61  0     1  0  0  0  0  0999 V2000
  -20.8706   -5.0344  -29.5066 C   0  0  0  0  0  0  0  0  0  0  0  0
  -21.7050   -4.3140  -30.3635 C   0  0  0  0  0  0  0  0  0  0  0  0
  -21.0051   -4.8500  -28.1088 C   0  0  0  0  0  0  0  0  0  0  0  0
  -21.9838   -3.9974  -27.5460 C   0  0  0  0  0  0  0  0  0  0  0  0
  -22.6279   -3.4545  -29.8098 C   0  0  0  0  0  0  0  0  0  0  0  0
  -22.7976   -3.2608  -28.4387 C   0  0  0  0  0  0  0  0  0  0  0  0
  -21.9070   -4.1759  -31.7493 C   0  0  0  0  0  0  0  0  0  0  0  0
  -18.9141   -3.7110  -26.1614 C   0  0  0  0  0  0  0  0  0  0  0  0
  -19.1141   -6.0291  -25.0454 C   0  0  0  0  0  0  0  0  0  0  0  0
  -16.9028   -5.0864  -25.6750 C   0  0  0  0  0  0  0  0  0  0  0  0
  -20.0856   -5.6403  -27.2166 C   0  0  0  0  0  0  0  0  0  0  0  0
  -23.4038   -3.5133  -25.5678 C   0  0  0  0  0  0  0  0  0  0  0  0
  -21.1615   -4.5295  -25.2174 C   0  0  2  0  0  0  0  0  0  0  0  0
  -23.1869   -2.6844  -24.3030 C   0  0  1  0  0  0  0  0  0  0  0  0
  -21.0343   -3.6122  -23.9624 C   0  0  2  0  0  0  0  0  0  0  0  0
  -19.8042   -4.9308  -25.8706 C   0  0  0  0  0  0  0  0  0  0  0  0
  -24.5055   -2.4239  -23.5862 C   0  0  0  0  0  0  0  0  0  0  0  0
  -20.1934   -4.1778  -22.8247 C   0  0  0  0  0  0  0  0  0  0  0  0
  -20.7532   -6.8737  -33.8403 C   0  0  0  0  0  0  0  0  0  0  0  0
  -19.8793   -6.2209  -34.9021 C   0  0  0  0  0  0  0  0  0  0  0  0
  -20.7543   -6.1067  -32.5236 C   0  0  0  0  0  0  0  0  0  0  0  0
  -19.1858   -9.2896  -35.8990 N   0  5  0  0  0  0  0  0  0  0  0  0
  -22.8736   -3.2985  -32.0356 N   0  0  0  0  0  0  0  0  0  0  0  0
  -19.8996   -7.0252  -36.1247 N   0  0  0  0  0  0  0  0  0  0  0  0
  -19.5265   -8.2060  -36.0031 N   0  3  0  0  0  0  0  0  0  0  0  0
  -17.5505   -3.9565  -26.1524 N   0  0  0  0  0  0  0  0  0  0  0  0
  -17.7308   -6.0524  -25.1226 N   0  0  0  0  0  0  0  0  0  0  0  0
  -22.0997   -3.8566  -26.1597 N   0  0  1  0  0  0  0  0  0  0  0  0
  -19.3644   -2.6025  -26.4524 O   0  0  0  0  0  0  0  0  0  0  0  0
  -19.7400   -6.8893  -24.4241 O   0  0  0  0  0  0  0  0  0  0  0  0
  -15.6768   -5.2060  -25.7040 O   0  0  0  0  0  0  0  0  0  0  0  0
  -23.3262   -2.8401  -30.8038 O   0  0  0  0  0  0  0  0  0  0  0  0
  -22.3382   -3.3920  -23.4012 O   0  0  0  0  0  0  0  0  0  0  0  0
  -21.2709   -4.7867  -32.7578 O   0  0  0  0  0  0  0  0  0  0  0  0
  -23.6543   -2.3117  -28.0437 F   0  0  0  0  0  0  0  0  0  0  0  0
  -20.1250   -5.7157  -29.9070 H   0  0  0  0  0  0  0  0  0  0  0  0
  -20.5525   -6.6213  -27.0509 H   0  0  0  0  0  0  0  0  0  0  0  0
  -19.1391   -5.8282  -27.7421 H   0  0  0  0  0  0  0  0  0  0  0  0
  -23.9071   -4.4561  -25.3137 H   0  0  0  0  0  0  0  0  0  0  0  0
  -24.0910   -2.9700  -26.2124 H   0  0  0  0  0  0  0  0  0  0  0  0
  -21.6784   -5.4470  -24.8999 H   0  0  0  0  0  0  0  0  0  0  0  0
  -22.7291   -1.7179  -24.5507 H   0  0  0  0  0  0  0  0  0  0  0  0
  -20.6133   -2.6357  -24.2309 H   0  0  0  0  0  0  0  0  0  0  0  0
  -24.9826   -3.3694  -23.3280 H   0  0  0  0  0  0  0  0  0  0  0  0
  -25.1746   -1.8548  -24.2316 H   0  0  0  0  0  0  0  0  0  0  0  0
  -24.3274   -1.8564  -22.6727 H   0  0  0  0  0  0  0  0  0  0  0  0
  -20.5787   -5.1525  -22.5253 H   0  0  0  0  0  0  0  0  0  0  0  0
  -20.2263   -3.5058  -21.9672 H   0  0  0  0  0  0  0  0  0  0  0  0
  -19.1581   -4.2904  -23.1467 H   0  0  0  0  0  0  0  0  0  0  0  0
  -20.3982   -7.8953  -33.6558 H   0  0  0  0  0  0  0  0  0  0  0  0
  -21.7840   -6.9753  -34.2028 H   0  0  0  0  0  0  0  0  0  0  0  0
  -20.2247   -5.2059  -35.1237 H   0  0  0  0  0  0  0  0  0  0  0  0
  -18.8475   -6.1538  -34.5422 H   0  0  0  0  0  0  0  0  0  0  0  0
  -21.3912   -6.6025  -31.7841 H   0  0  0  0  0  0  0  0  0  0  0  0
  -19.7425   -6.0135  -32.1175 H   0  0  0  0  0  0  0  0  0  0  0  0
  -16.9583   -3.2267  -26.5389 H   0  0  0  0  0  0  0  0  0  0  0  0
  -17.2677   -6.8405  -24.6787 H   0  0  0  0  0  0  0  0  0  0  0  0
  1  2  2  0  0  0  0
  1  3  1  0  0  0  0
  2  5  1  0  0  0  0
  2  7  1  0  0  0  0
  3  4  2  0  0  0  0
  3 11  1  0  0  0  0
  4  6  1  0  0  0  0
  4 28  1  0  0  0  0
  5  6  2  0  0  0  0
  5 32  1  0  0  0  0
  6 35  1  0  0  0  0
  7 23  2  0  0  0  0
  7 34  1  0  0  0  0
  8 16  1  0  0  0  0
  8 26  1  0  0  0  0
  8 29  2  0  0  0  0
  9 16  1  0  0  0  0
  9 27  1  0  0  0  0
  9 30  2  0  0  0  0
 10 26  1  0  0  0  0
 10 27  1  0  0  0  0
 10 31  2  0  0  0  0
 11 16  1  0  0  0  0
 12 14  1  0  0  0  0
 12 28  1  0  0  0  0
 13 15  1  0  0  0  0
 13 16  1  0  0  0  0
 13 28  1  0  0  0  0
 14 17  1  0  0  0  0
 14 33  1  0  0  0  0
 15 18  1  0  0  0  0
 15 33  1  0  0  0  0
 19 20  1  0  0  0  0
 19 21  1  0  0  0  0
 20 24  1  0  0  0  0
 21 34  1  0  0  0  0
 22 25  2  0  0  0  0
 23 32  1  0  0  0  0
 24 25  2  0  0  0  0
  1 36  1  0  0  0  0
 11 37  1  0  0  0  0
 11 38  1  0  0  0  0
 12 39  1  0  0  0  0
 12 40  1  0  0  0  0
 13 41  1  0  0  0  0
 14 42  1  0  0  0  0
 15 43  1  0  0  0  0
 17 44  1  0  0  0  0
 17 45  1  0  0  0  0
 17 46  1  0  0  0  0
 18 47  1  0  0  0  0
 18 48  1  0  0  0  0
 18 49  1  0  0  0  0
 19 50  1  0  0  0  0
 19 51  1  0  0  0  0
 20 52  1  0  0  0  0
 20 53  1  0  0  0  0
 21 54  1  0  0  0  0
 21 55  1  0  0  0  0
 26 56  1  0  0  0  0
 27 57  1  0  0  0  0
M  CHG  2  22  -1  25   1
M  END
> <SMILES>
C[C@@H]1CN2[C@H]([C@H](C)O1)C1(Cc3cc4c(noc4c(c32)F)OCCCN=[N+]=[N-])C(=O)NC(=O)NC1=O

> <FORMATTED_ID>
H3D-005789

> <MOLFORMULA>
C21H22FN7O6

> <Exact Mass>
487.16

> <XLogP>
0.84

> <TPSA_NOPS>
172.1

> <s_m_source_file>
ligprep_h3d.sdf

> <i_m_source_file_index>
890

> <i_lp_mmshare_version>
55123

> <i_f3d_flags>
0

> <s_epik_input>
Tz1DMVtOSF1DKD1PKVtOSF1DKD1PKUMxMltDQEBIXTNOKFtDSDJdW0NAQEhdKFtDSDNdKU9bQ0BIXTNbQ0gzXSljNGMoW0NIMl0yKVtjSF1jNWMoYzRGKW9uYzVPW0NIMl1bQ0gyXVtDSDJdTj1bTitdPVtOLV0=

> <s_epik_cmdline>
J2VwaWtfcHl0aG9uJywgJy1waHQnLCAnMC41JywgJy1waCcsICc3LjUnLCAnLXRuJywgJzgnLCAnLW1hJywgJzUwMCcsICctaW1hZScsICc8aW5maWxlLm1hZT4nLCAnLW9tYWUnLCAnPG91dGZpbGUubWFlPic=

> <r_lp_tautomer_probability>
1

> <r_epik_Ionization_Penalty>
0.369126

> <r_epik_Ionization_Penalty_Charging>
0

> <r_epik_Ionization_Penalty_Neutral>
0.369126

> <r_epik_State_Penalty>
0.366447

> <r_epik_Charging_Adjusted_Penalty>
0.366447

> <i_epik_Tot_Q>
0

> <i_epik_Tot_abs_Q>
2

> <s_lp_Force_Field>
S-OPLS

> <r_lp_Energy>
43.6537

> <b_lp_Chiralities_Consistent>
1

> <s_lp_Variant>
ligprep_h3d.sdf:890-1

> <ROCS_ShapeQuery>
_7L13

> <ROCS_TanimotoCombo>
0.769 

> <ROCS_ShapeTanimoto>
0.631 

> <ROCS_ColorTanimoto>
0.138 

> <ROCS_RefTversky>
0.768 

> <ROCS_RefColorTversky>
0.291 

> <ROCS_RefTverskyCombo>
1.059 

> <ROCS_FitTversky>
0.779 

> <ROCS_FitColorTversky>
0.209 

> <ROCS_FitTverskyCombo>
0.988 

> <ROCS_ColorScore>
-2.681

> <ROCS_Overlap>
1274.165

> <ROCS_Rank>
566                 

$$$$
ligprep_h3d.sdf:752_1610
  -OEChem-08212117123D

 65 69  0     0  0  0  0  0  0999 V2000
  -17.2721   -5.9103  -26.5302 C   0  0  0  0  0  0  0  0  0  0  0  0
  -23.5649   -3.8436  -28.2262 C   0  0  0  0  0  0  0  0  0  0  0  0
  -21.1050   -4.6831  -24.9836 C   0  0  0  0  0  0  0  0  0  0  0  0
  -17.9899   -7.1148  -26.4050 C   0  0  0  0  0  0  0  0  0  0  0  0
  -18.7884   -5.3298  -35.4822 C   0  0  0  0  0  0  0  0  0  0  0  0
  -21.4980   -4.7202  -27.3688 C   0  0  0  0  0  0  0  0  0  0  0  0
  -23.1652   -4.1480  -29.5298 C   0  0  0  0  0  0  0  0  0  0  0  0
  -21.0957   -5.0264  -28.6799 C   0  0  0  0  0  0  0  0  0  0  0  0
  -22.7517   -4.1191  -27.1303 C   0  0  0  0  0  0  0  0  0  0  0  0
  -20.6789   -4.9976  -26.2660 C   0  0  0  0  0  0  0  0  0  0  0  0
  -21.9291   -4.7401  -29.7573 C   0  0  0  0  0  0  0  0  0  0  0  0
  -22.3472   -4.0969  -24.8497 C   0  0  0  0  0  0  0  0  0  0  0  0
  -19.9025   -5.9401  -34.9633 C   0  0  0  0  0  0  0  0  0  0  0  0
  -18.2347   -4.9313  -26.4915 C   0  0  0  0  0  0  0  0  0  0  0  0
  -22.8537   -3.7432  -23.5347 C   0  0  0  0  0  0  0  0  0  0  0  0
  -20.4633   -4.2676  -33.1457 C   0  0  0  0  0  0  0  0  0  0  0  0
  -20.8987   -6.7092  -32.7656 C   0  0  0  0  0  0  0  0  0  0  0  0
  -21.4357   -3.9264  -32.0168 C   0  0  0  0  0  0  0  0  0  0  0  0
  -21.8639   -6.3552  -31.6331 C   0  0  0  0  0  0  0  0  0  0  0  0
  -20.8395   -5.5951  -33.8211 C   0  0  0  0  0  0  0  0  0  0  0  0
  -24.0910   -3.8251  -30.6578 C   0  0  0  0  0  0  0  0  0  0  0  0
  -19.7784   -5.6664  -29.0125 C   0  0  0  0  0  0  0  0  0  0  0  0
  -18.1138   -3.4626  -26.5754 C   0  0  0  0  0  0  0  0  0  0  0  0
  -24.8989   -3.4276  -22.1175 C   0  0  0  0  0  0  0  0  0  0  0  0
  -25.6918   -4.6184  -21.6105 C   0  0  0  0  0  0  0  0  0  0  0  0
  -18.3050   -6.0676  -36.5270 N   0  0  0  0  0  0  0  0  0  0  0  0
  -19.3069   -6.9211  -26.2949 N   0  0  0  0  0  0  0  0  0  0  0  0
  -23.1678   -3.8128  -25.8869 N   0  0  0  0  0  0  0  0  0  0  0  0
  -19.0917   -7.1277  -36.6766 N   0  0  0  0  0  0  0  0  0  0  0  0
  -20.0490   -7.0493  -35.7382 N   0  0  0  0  0  0  0  0  0  0  0  0
  -19.4242   -5.5835  -26.3506 N   0  0  0  0  0  0  0  0  0  0  0  0
  -21.5348   -5.0427  -31.0663 N   0  0  0  0  0  0  0  0  0  0  0  0
  -24.2425   -3.7747  -23.3575 N   0  0  0  0  0  0  0  0  0  0  0  0
  -22.0730   -3.4095  -22.6247 O   0  0  0  0  0  0  0  0  0  0  0  0
  -26.6920   -4.9592  -22.5619 O   0  0  0  0  0  0  0  0  0  0  0  0
  -16.2056   -5.7734  -26.6335 H   0  0  0  0  0  0  0  0  0  0  0  0
  -24.5363   -3.3782  -28.0633 H   0  0  0  0  0  0  0  0  0  0  0  0
  -20.4892   -4.8865  -24.1119 H   0  0  0  0  0  0  0  0  0  0  0  0
  -17.6081   -8.1255  -26.3893 H   0  0  0  0  0  0  0  0  0  0  0  0
  -18.3143   -4.4135  -35.1642 H   0  0  0  0  0  0  0  0  0  0  0  0
  -20.4663   -3.4553  -33.8834 H   0  0  0  0  0  0  0  0  0  0  0  0
  -19.4419   -4.3183  -32.7445 H   0  0  0  0  0  0  0  0  0  0  0  0
  -19.8995   -6.8925  -32.3474 H   0  0  0  0  0  0  0  0  0  0  0  0
  -21.2168   -7.6512  -33.2299 H   0  0  0  0  0  0  0  0  0  0  0  0
  -21.0825   -3.0168  -31.5086 H   0  0  0  0  0  0  0  0  0  0  0  0
  -22.4301   -3.7012  -32.4319 H   0  0  0  0  0  0  0  0  0  0  0  0
  -22.8981   -6.3498  -32.0102 H   0  0  0  0  0  0  0  0  0  0  0  0
  -21.8043   -7.1364  -30.8607 H   0  0  0  0  0  0  0  0  0  0  0  0
  -21.8554   -5.4838  -34.2679 H   0  0  0  0  0  0  0  0  0  0  0  0
  -23.8967   -2.8128  -31.0294 H   0  0  0  0  0  0  0  0  0  0  0  0
  -23.9663   -4.5326  -31.4863 H   0  0  0  0  0  0  0  0  0  0  0  0
  -25.1386   -3.8866  -30.3392 H   0  0  0  0  0  0  0  0  0  0  0  0
  -19.8828   -6.7546  -29.0097 H   0  0  0  0  0  0  0  0  0  0  0  0
  -19.4284   -5.3445  -29.9978 H   0  0  0  0  0  0  0  0  0  0  0  0
  -19.0131   -5.3798  -28.2850 H   0  0  0  0  0  0  0  0  0  0  0  0
  -18.1741   -3.1181  -27.6208 H   0  0  0  0  0  0  0  0  0  0  0  0
  -18.9078   -2.9489  -26.0070 H   0  0  0  0  0  0  0  0  0  0  0  0
  -17.1582   -3.1016  -26.1581 H   0  0  0  0  0  0  0  0  0  0  0  0
  -25.5498   -2.5673  -22.3031 H   0  0  0  0  0  0  0  0  0  0  0  0
  -24.1301   -3.1452  -21.3919 H   0  0  0  0  0  0  0  0  0  0  0  0
  -26.1920   -4.3630  -20.6712 H   0  0  0  0  0  0  0  0  0  0  0  0
  -25.0493   -5.4898  -21.4475 H   0  0  0  0  0  0  0  0  0  0  0  0
  -20.7516   -7.7774  -35.6889 H   0  0  0  0  0  0  0  0  0  0  0  0
  -24.8380   -3.9925  -24.1497 H   0  0  0  0  0  0  0  0  0  0  0  0
  -27.1733   -5.7210  -22.2008 H   0  0  0  0  0  0  0  0  0  0  0  0
  1  4  1  0  0  0  0
  1 14  2  0  0  0  0
  2  7  2  0  0  0  0
  2  9  1  0  0  0  0
  3 10  1  0  0  0  0
  3 12  2  0  0  0  0
  4 27  2  0  0  0  0
  5 13  2  0  0  0  0
  5 26  1  0  0  0  0
  6  8  1  0  0  0  0
  6  9  1  0  0  0  0
  6 10  2  0  0  0  0
  7 11  1  0  0  0  0
  7 21  1  0  0  0  0
  8 11  2  0  0  0  0
  8 22  1  0  0  0  0
  9 28  2  0  0  0  0
 10 31  1  0  0  0  0
 11 32  1  0  0  0  0
 12 15  1  0  0  0  0
 12 28  1  0  0  0  0
 13 20  1  0  0  0  0
 13 30  1  0  0  0  0
 14 23  1  0  0  0  0
 14 31  1  0  0  0  0
 15 33  1  0  0  0  0
 15 34  2  0  0  0  0
 16 18  1  0  0  0  0
 16 20  1  0  0  0  0
 17 19  1  0  0  0  0
 17 20  1  0  0  0  0
 18 32  1  0  0  0  0
 19 32  1  0  0  0  0
 24 25  1  0  0  0  0
 24 33  1  0  0  0  0
 25 35  1  0  0  0  0
 26 29  2  0  0  0  0
 27 31  1  0  0  0  0
 29 30  1  0  0  0  0
  1 36  1  0  0  0  0
  2 37  1  0  0  0  0
  3 38  1  0  0  0  0
  4 39  1  0  0  0  0
  5 40  1  0  0  0  0
 16 41  1  0  0  0  0
 16 42  1  0  0  0  0
 17 43  1  0  0  0  0
 17 44  1  0  0  0  0
 18 45  1  0  0  0  0
 18 46  1  0  0  0  0
 19 47  1  0  0  0  0
 19 48  1  0  0  0  0
 20 49  1  0  0  0  0
 21 50  1  0  0  0  0
 21 51  1  0  0  0  0
 21 52  1  0  0  0  0
 22 53  1  0  0  0  0
 22 54  1  0  0  0  0
 22 55  1  0  0  0  0
 23 56  1  0  0  0  0
 23 57  1  0  0  0  0
 23 58  1  0  0  0  0
 24 59  1  0  0  0  0
 24 60  1  0  0  0  0
 25 61  1  0  0  0  0
 25 62  1  0  0  0  0
 30 63  1  0  0  0  0
 33 64  1  0  0  0  0
 35 65  1  0  0  0  0
M  END
> <SMILES>
Cc1cc2nc(cc(c2c(c1N1CCC(CC1)c1cnn[nH]1)C)-n1nccc1C)C(=O)NCCO

> <FORMATTED_ID>
H3D-005031

> <MOLFORMULA>
C25H30N8O2

> <Exact Mass>
474.25

> <XLogP>
2.01

> <TPSA_NOPS>
124.9

> <s_m_source_file>
ligprep_h3d.sdf

> <i_m_source_file_index>
752

> <i_lp_mmshare_version>
55123

> <i_f3d_flags>
0

> <s_epik_input>
W25IXTFubltjSF1jMVtDSF0oW0NIMl1bQ0gyXTIpW0NIMl1bQ0gyXU4yYyhjKFtDSDNdKVtjSF0zKWMoW0NIM10pYyhjMzQpYygtbjVuW2NIXVtjSF1jNVtDSDNdKVtjSF1jKG40KUMoPU8pW05IXVtDSDJdW0NIMl1bT0hd

> <s_epik_cmdline>
J2VwaWtfcHl0aG9uJywgJy1waHQnLCAnMC41JywgJy1waCcsICc3LjUnLCAnLXRuJywgJzgnLCAnLW1hJywgJzUwMCcsICctaW1hZScsICc8aW5maWxlLm1hZT4nLCAnLW9tYWUnLCAnPG91dGZpbGUubWFlPic=

> <r_lp_tautomer_probability>
0.173826

> <r_epik_Ionization_Penalty>
0.000482545

> <r_epik_Ionization_Penalty_Charging>
0

> <r_epik_Ionization_Penalty_Neutral>
0.000482545

> <r_epik_State_Penalty>
0.41068

> <r_epik_Charging_Adjusted_Penalty>
0.41068

> <i_epik_Tot_Q>
0

> <i_epik_Tot_abs_Q>
0

> <s_lp_Force_Field>
S-OPLS

> <r_lp_Energy>
56.583

> <b_lp_Chiralities_Consistent>
1

> <s_lp_Variant>
ligprep_h3d.sdf:752-1

> <ROCS_ShapeQuery>
_7L13

> <ROCS_TanimotoCombo>
0.762 

> <ROCS_ShapeTanimoto>
0.632 

> <ROCS_ColorTanimoto>
0.130 

> <ROCS_RefTversky>
0.768 

> <ROCS_RefColorTversky>
0.290 

> <ROCS_RefTverskyCombo>
1.058 

> <ROCS_FitTversky>
0.781 

> <ROCS_FitColorTversky>
0.191 

> <ROCS_FitTverskyCombo>
0.971 

> <ROCS_ColorScore>
-2.686

> <ROCS_Overlap>
1273.957

> <ROCS_Rank>
567                 

$$$$
ligprep_h3d.sdf:5308_881
  -OEChem-08212117123D

 68 72  0     0  0  0  0  0  0999 V2000
  -19.2910   -5.5296  -34.8334 C   0  0  0  0  0  0  0  0  0  0  0  0
  -20.2660   -6.4723  -34.5077 C   0  0  0  0  0  0  0  0  0  0  0  0
  -19.2318   -4.3198  -34.1415 C   0  0  0  0  0  0  0  0  0  0  0  0
  -21.1820   -6.2053  -33.4902 C   0  0  0  0  0  0  0  0  0  0  0  0
  -20.1479   -4.0527  -33.1241 C   0  0  0  0  0  0  0  0  0  0  0  0
  -23.6589   -3.9358  -27.7787 C   0  0  0  0  0  0  0  0  0  0  0  0
  -20.9609   -4.3478  -28.4708 C   0  0  0  0  0  0  0  0  0  0  0  0
  -18.3679   -3.9015  -26.0211 C   0  0  0  0  0  0  0  0  0  0  0  0
  -18.6982   -6.2105  -25.4188 C   0  0  0  0  0  0  0  0  0  0  0  0
  -22.7191   -4.2932  -26.8193 C   0  0  0  0  0  0  0  0  0  0  0  0
  -21.1230   -4.9955  -32.7984 C   0  0  0  0  0  0  0  0  0  0  0  0
  -21.3694   -4.4839  -27.1498 C   0  0  0  0  0  0  0  0  0  0  0  0
  -19.2188   -4.9842  -25.8209 C   0  0  0  0  0  0  0  0  0  0  0  0
  -23.2413   -3.7870  -29.0997 C   0  0  0  0  0  0  0  0  0  0  0  0
  -21.9013   -3.9960  -29.4441 C   0  0  0  0  0  0  0  0  0  0  0  0
  -17.0069   -4.0737  -25.8126 C   0  0  0  0  0  0  0  0  0  0  0  0
  -17.3288   -6.3243  -25.2257 C   0  0  0  0  0  0  0  0  0  0  0  0
  -23.0854   -3.1306  -24.6330 C   0  0  0  0  0  0  0  0  0  0  0  0
  -24.1206   -5.4042  -25.0134 C   0  0  0  0  0  0  0  0  0  0  0  0
  -21.5692   -5.1811  -24.9679 C   0  0  0  0  0  0  0  0  0  0  0  0
  -23.3767   -3.2552  -23.1409 C   0  0  0  0  0  0  0  0  0  0  0  0
  -24.3600   -5.5332  -23.5148 C   0  0  0  0  0  0  0  0  0  0  0  0
  -22.9231   -4.4942  -25.3374 C   0  0  0  0  0  0  0  0  0  0  0  0
  -16.0336   -2.9682  -26.0051 C   0  0  0  0  0  0  0  0  0  0  0  0
  -16.6958   -7.5986  -24.7991 C   0  0  0  0  0  0  0  0  0  0  0  0
  -24.9505   -4.2303  -21.4736 C   0  0  0  0  0  0  0  0  0  0  0  0
  -24.3373   -2.0443  -30.2903 C   0  0  0  0  0  0  0  0  0  0  0  0
  -22.1082   -4.7074  -31.7039 C   0  0  0  0  0  0  0  0  0  0  0  0
  -16.5321   -5.2656  -25.4256 N   0  3  0  0  0  0  0  0  0  0  0  0
  -20.5948   -4.8407  -26.0228 N   0  0  0  0  0  0  0  0  0  0  0  0
  -24.5649   -4.1588  -22.9258 N   0  3  0  0  0  0  0  0  0  0  0  0
  -24.1515   -3.4378  -30.0521 O   0  0  0  0  0  0  0  0  0  0  0  0
  -21.4956   -3.8559  -30.7387 O   0  0  0  0  0  0  0  0  0  0  0  0
  -18.5769   -5.7383  -35.6247 H   0  0  0  0  0  0  0  0  0  0  0  0
  -20.3115   -7.4148  -35.0455 H   0  0  0  0  0  0  0  0  0  0  0  0
  -18.4721   -3.5861  -34.3941 H   0  0  0  0  0  0  0  0  0  0  0  0
  -21.9385   -6.9456  -33.2434 H   0  0  0  0  0  0  0  0  0  0  0  0
  -20.0943   -3.1074  -32.5905 H   0  0  0  0  0  0  0  0  0  0  0  0
  -24.6967   -3.7698  -27.5082 H   0  0  0  0  0  0  0  0  0  0  0  0
  -19.9231   -4.5059  -28.7498 H   0  0  0  0  0  0  0  0  0  0  0  0
  -18.7590   -2.9377  -26.3342 H   0  0  0  0  0  0  0  0  0  0  0  0
  -19.3501   -7.0648  -25.2591 H   0  0  0  0  0  0  0  0  0  0  0  0
  -23.9061   -2.5688  -25.1003 H   0  0  0  0  0  0  0  0  0  0  0  0
  -22.1865   -2.5153  -24.7693 H   0  0  0  0  0  0  0  0  0  0  0  0
  -23.9752   -6.4028  -25.4450 H   0  0  0  0  0  0  0  0  0  0  0  0
  -25.0344   -5.0100  -25.4775 H   0  0  0  0  0  0  0  0  0  0  0  0
  -21.1964   -4.8718  -23.9853 H   0  0  0  0  0  0  0  0  0  0  0  0
  -21.6854   -6.2739  -24.9429 H   0  0  0  0  0  0  0  0  0  0  0  0
  -22.5334   -3.6765  -22.5844 H   0  0  0  0  0  0  0  0  0  0  0  0
  -23.6300   -2.2763  -22.7200 H   0  0  0  0  0  0  0  0  0  0  0  0
  -25.2698   -6.1112  -23.3217 H   0  0  0  0  0  0  0  0  0  0  0  0
  -23.5157   -5.9991  -22.9952 H   0  0  0  0  0  0  0  0  0  0  0  0
  -15.8955   -2.4059  -25.0711 H   0  0  0  0  0  0  0  0  0  0  0  0
  -15.0516   -3.3453  -26.3267 H   0  0  0  0  0  0  0  0  0  0  0  0
  -16.3683   -2.2655  -26.7824 H   0  0  0  0  0  0  0  0  0  0  0  0
  -16.4142   -8.2033  -25.6725 H   0  0  0  0  0  0  0  0  0  0  0  0
  -15.7912   -7.4200  -24.1995 H   0  0  0  0  0  0  0  0  0  0  0  0
  -17.3734   -8.1966  -24.1719 H   0  0  0  0  0  0  0  0  0  0  0  0
  -24.1180   -4.6794  -20.9288 H   0  0  0  0  0  0  0  0  0  0  0  0
  -25.1423   -3.2126  -21.1283 H   0  0  0  0  0  0  0  0  0  0  0  0
  -25.8481   -4.8468  -21.3963 H   0  0  0  0  0  0  0  0  0  0  0  0
  -25.0885   -1.9043  -31.0714 H   0  0  0  0  0  0  0  0  0  0  0  0
  -23.3888   -1.5966  -30.5976 H   0  0  0  0  0  0  0  0  0  0  0  0
  -24.6806   -1.5688  -29.3685 H   0  0  0  0  0  0  0  0  0  0  0  0
  -23.0013   -4.2129  -32.1009 H   0  0  0  0  0  0  0  0  0  0  0  0
  -22.4263   -5.6344  -31.2148 H   0  0  0  0  0  0  0  0  0  0  0  0
  -15.5283   -5.3714  -25.2784 H   0  0  0  0  0  0  0  0  0  0  0  0
  -25.3634   -3.7332  -23.4165 H   0  0  0  0  0  0  0  0  0  0  0  0
  1  2  2  0  0  0  0
  1  3  1  0  0  0  0
  2  4  1  0  0  0  0
  3  5  2  0  0  0  0
  4 11  2  0  0  0  0
  5 11  1  0  0  0  0
  6 10  1  0  0  0  0
  6 14  2  0  0  0  0
  7 12  1  0  0  0  0
  7 15  2  0  0  0  0
  8 13  2  0  0  0  0
  8 16  1  0  0  0  0
  9 13  1  0  0  0  0
  9 17  2  0  0  0  0
 10 12  2  0  0  0  0
 10 23  1  0  0  0  0
 11 28  1  0  0  0  0
 12 30  1  0  0  0  0
 13 30  1  0  0  0  0
 14 15  1  0  0  0  0
 14 32  1  0  0  0  0
 15 33  1  0  0  0  0
 16 24  1  0  0  0  0
 16 29  2  0  0  0  0
 17 25  1  0  0  0  0
 17 29  1  0  0  0  0
 18 21  1  0  0  0  0
 18 23  1  0  0  0  0
 19 22  1  0  0  0  0
 19 23  1  0  0  0  0
 20 23  1  0  0  0  0
 20 30  1  0  0  0  0
 21 31  1  0  0  0  0
 22 31  1  0  0  0  0
 26 31  1  0  0  0  0
 27 32  1  0  0  0  0
 28 33  1  0  0  0  0
  1 34  1  0  0  0  0
  2 35  1  0  0  0  0
  3 36  1  0  0  0  0
  4 37  1  0  0  0  0
  5 38  1  0  0  0  0
  6 39  1  0  0  0  0
  7 40  1  0  0  0  0
  8 41  1  0  0  0  0
  9 42  1  0  0  0  0
 18 43  1  0  0  0  0
 18 44  1  0  0  0  0
 19 45  1  0  0  0  0
 19 46  1  0  0  0  0
 20 47  1  0  0  0  0
 20 48  1  0  0  0  0
 21 49  1  0  0  0  0
 21 50  1  0  0  0  0
 22 51  1  0  0  0  0
 22 52  1  0  0  0  0
 24 53  1  0  0  0  0
 24 54  1  0  0  0  0
 24 55  1  0  0  0  0
 25 56  1  0  0  0  0
 25 57  1  0  0  0  0
 25 58  1  0  0  0  0
 26 59  1  0  0  0  0
 26 60  1  0  0  0  0
 26 61  1  0  0  0  0
 27 62  1  0  0  0  0
 27 63  1  0  0  0  0
 27 64  1  0  0  0  0
 28 65  1  0  0  0  0
 28 66  1  0  0  0  0
 29 67  1  0  0  0  0
 31 68  1  0  0  0  0
M  CHG  2  29   1  31   1
M  END
> <SMILES>
COc1cc2c(cc1OCc1ccccc1)N(CC12CCN(C)CC1)c1cc(nc(c1)C)C

> <FORMATTED_ID>
H3D-014269

> <MOLFORMULA>
C28H33N3O2

> <Exact Mass>
443.26

> <XLogP>
5.29

> <TPSA_NOPS>
37.8

> <s_m_source_file>
ligprep_h3d.sdf

> <i_m_source_file_index>
5308

> <i_lp_mmshare_version>
55123

> <i_f3d_flags>
0

> <s_epik_input>
W2NIXTFbY0hdW2NIXVtjSF1bY0hdYzFbQ0gyXU9jKGMoW2NIXTIpT1tDSDNdKVtjSF1jKGMyQzM0W0NIMl1bQ0gyXU4oW0NIM10pW0NIMl1bQ0gyXTQpTihbQ0gyXTMpYzVbY0hdYyhbQ0gzXSluYyhbY0hdNSlbQ0gzXQ==

> <s_epik_cmdline>
J2VwaWtfcHl0aG9uJywgJy1waHQnLCAnMC41JywgJy1waCcsICc3LjUnLCAnLXRuJywgJzgnLCAnLW1hJywgJzUwMCcsICctaW1hZScsICc8aW5maWxlLm1hZT4nLCAnLW9tYWUnLCAnPG91dGZpbGUubWFlPic=

> <r_lp_tautomer_probability>
1

> <r_epik_Ionization_Penalty>
0.144819

> <r_epik_Ionization_Penalty_Charging>
0.144819

> <r_epik_Ionization_Penalty_Neutral>
3.09047e-10

> <r_epik_State_Penalty>
0.126031

> <r_epik_Charging_Adjusted_Penalty>
0.27085

> <i_epik_Tot_Q>
2

> <i_epik_Tot_abs_Q>
2

> <s_lp_Force_Field>
S-OPLS

> <r_lp_Energy>
74.1067

> <b_lp_Chiralities_Consistent>
1

> <s_lp_Variant>
ligprep_h3d.sdf:5308-1

> <ROCS_ShapeQuery>
_7L13

> <ROCS_TanimotoCombo>
0.771 

> <ROCS_ShapeTanimoto>
0.668 

> <ROCS_ColorTanimoto>
0.103 

> <ROCS_RefTversky>
0.768 

> <ROCS_RefColorTversky>
0.205 

> <ROCS_RefTverskyCombo>
0.973 

> <ROCS_FitTversky>
0.838 

> <ROCS_FitColorTversky>
0.171 

> <ROCS_FitTverskyCombo>
1.008 

> <ROCS_ColorScore>
-1.864

> <ROCS_Overlap>
1269.190

> <ROCS_Rank>
568                 

$$$$
ligprep_h3d.sdf:2711_1930
  -OEChem-08212117123D

 69 74  0     0  0  0  0  0  0999 V2000
  -16.4777   -5.7807  -26.3415 C   0  0  0  0  0  0  0  0  0  0  0  0
  -25.7008   -5.0529  -23.3204 C   0  0  0  0  0  0  0  0  0  0  0  0
  -24.7991   -4.2216  -22.6520 C   0  0  0  0  0  0  0  0  0  0  0  0
  -18.8150   -5.7647  -25.6224 C   0  0  0  0  0  0  0  0  0  0  0  0
  -17.7572   -3.6976  -26.2898 C   0  0  0  0  0  0  0  0  0  0  0  0
  -20.1185   -7.4447  -36.2483 C   0  0  0  0  0  0  0  0  0  0  0  0
  -18.5157   -5.7565  -35.6016 C   0  0  0  0  0  0  0  0  0  0  0  0
  -20.0011   -5.0758  -25.3688 C   0  0  0  0  0  0  0  0  0  0  0  0
  -18.9433   -3.0088  -26.0363 C   0  0  0  0  0  0  0  0  0  0  0  0
  -20.7123   -7.3635  -34.9888 C   0  0  0  0  0  0  0  0  0  0  0  0
  -19.1096   -5.6752  -34.3421 C   0  0  0  0  0  0  0  0  0  0  0  0
  -25.4957   -5.4115  -24.6586 C   0  0  0  0  0  0  0  0  0  0  0  0
  -23.6623   -3.7192  -23.2937 C   0  0  0  0  0  0  0  0  0  0  0  0
  -17.6930   -5.0755  -26.0828 C   0  0  0  0  0  0  0  0  0  0  0  0
  -19.0202   -6.6413  -36.5547 C   0  0  0  0  0  0  0  0  0  0  0  0
  -20.2079   -6.4787  -34.0357 C   0  0  0  0  0  0  0  0  0  0  0  0
  -20.0652   -3.6979  -25.5758 C   0  0  0  0  0  0  0  0  0  0  0  0
  -24.3589   -4.9157  -25.3189 C   0  0  0  0  0  0  0  0  0  0  0  0
  -23.4784   -4.0895  -24.6263 C   0  0  0  0  0  0  0  0  0  0  0  0
  -18.4060   -6.7254  -37.8572 C   0  0  0  0  0  0  0  0  0  0  0  0
  -22.8152   -4.4247  -26.7102 C   0  0  0  0  0  0  0  0  0  0  0  0
  -17.3974   -6.5361  -39.6534 C   0  0  0  0  0  0  0  0  0  0  0  0
  -21.4356   -5.6964  -28.3357 C   0  0  0  0  0  0  0  0  0  0  0  0
  -22.7520   -3.6694  -29.0742 C   0  0  0  0  0  0  0  0  0  0  0  0
  -20.6175   -5.6204  -29.6185 C   0  0  0  0  0  0  0  0  0  0  0  0
  -21.9236   -3.6087  -30.3512 C   0  0  0  0  0  0  0  0  0  0  0  0
  -21.9650   -4.3138  -27.9217 C   0  0  0  0  0  0  0  0  0  0  0  0
  -16.5571   -5.9721  -40.7151 C   0  0  0  0  0  0  0  0  0  0  0  0
  -20.8468   -6.3917  -32.6799 C   0  0  0  0  0  0  0  0  0  0  0  0
  -21.3453   -2.9550  -25.3038 C   0  0  0  0  0  0  0  0  0  0  0  0
  -20.7369   -5.0143  -32.0337 C   0  0  0  0  0  0  0  0  0  0  0  0
  -15.4905   -6.3535  -26.5517 N   0  0  0  0  0  0  0  0  0  0  0  0
  -23.9304   -5.1129  -26.6116 N   0  0  0  0  0  0  0  0  0  0  0  0
  -17.6334   -5.8744  -38.4836 N   0  0  0  0  0  0  0  0  0  0  0  0
  -17.9799   -7.7329  -39.7715 N   0  0  0  0  0  0  0  0  0  0  0  0
  -22.5008   -3.7907  -25.5404 N   0  0  0  0  0  0  0  0  0  0  0  0
  -21.4529   -4.9975  -30.7111 N   0  3  0  0  0  0  0  0  0  0  0  0
  -18.6631   -7.8622  -38.5557 O   0  0  0  0  0  0  0  0  0  0  0  0
  -26.5746   -5.4287  -22.7944 H   0  0  0  0  0  0  0  0  0  0  0  0
  -24.9838   -3.9591  -21.6130 H   0  0  0  0  0  0  0  0  0  0  0  0
  -18.7800   -6.8385  -25.4544 H   0  0  0  0  0  0  0  0  0  0  0  0
  -16.8918   -3.1462  -26.6500 H   0  0  0  0  0  0  0  0  0  0  0  0
  -20.5232   -8.1396  -36.9804 H   0  0  0  0  0  0  0  0  0  0  0  0
  -17.6604   -5.1234  -35.8254 H   0  0  0  0  0  0  0  0  0  0  0  0
  -20.8699   -5.6208  -25.0094 H   0  0  0  0  0  0  0  0  0  0  0  0
  -18.9847   -1.9355  -26.2022 H   0  0  0  0  0  0  0  0  0  0  0  0
  -21.5674   -7.9935  -34.7585 H   0  0  0  0  0  0  0  0  0  0  0  0
  -18.7097   -4.9830  -33.6059 H   0  0  0  0  0  0  0  0  0  0  0  0
  -26.2020   -6.0586  -25.1685 H   0  0  0  0  0  0  0  0  0  0  0  0
  -22.9623   -3.0746  -22.7739 H   0  0  0  0  0  0  0  0  0  0  0  0
  -22.2698   -6.3973  -28.4748 H   0  0  0  0  0  0  0  0  0  0  0  0
  -20.8119   -6.1135  -27.5351 H   0  0  0  0  0  0  0  0  0  0  0  0
  -23.0596   -2.6536  -28.7955 H   0  0  0  0  0  0  0  0  0  0  0  0
  -23.6774   -4.2300  -29.2641 H   0  0  0  0  0  0  0  0  0  0  0  0
  -19.7187   -5.0064  -29.4934 H   0  0  0  0  0  0  0  0  0  0  0  0
  -20.3325   -6.6234  -29.9526 H   0  0  0  0  0  0  0  0  0  0  0  0
  -22.5292   -3.2402  -31.1856 H   0  0  0  0  0  0  0  0  0  0  0  0
  -21.0368   -2.9760  -30.2337 H   0  0  0  0  0  0  0  0  0  0  0  0
  -21.1115   -3.6696  -27.6742 H   0  0  0  0  0  0  0  0  0  0  0  0
  -15.4969   -6.2604  -40.5909 H   0  0  0  0  0  0  0  0  0  0  0  0
  -16.8704   -6.3036  -41.7237 H   0  0  0  0  0  0  0  0  0  0  0  0
  -16.5945   -4.8660  -40.7415 H   0  0  0  0  0  0  0  0  0  0  0  0
  -21.9112   -6.6432  -32.7788 H   0  0  0  0  0  0  0  0  0  0  0  0
  -20.4249   -7.1522  -32.0100 H   0  0  0  0  0  0  0  0  0  0  0  0
  -21.3848   -2.6006  -24.2666 H   0  0  0  0  0  0  0  0  0  0  0  0
  -21.4299   -2.0654  -25.9397 H   0  0  0  0  0  0  0  0  0  0  0  0
  -21.2207   -4.2546  -32.6547 H   0  0  0  0  0  0  0  0  0  0  0  0
  -19.7018   -4.7180  -31.8391 H   0  0  0  0  0  0  0  0  0  0  0  0
  -22.2911   -5.5836  -30.8271 H   0  0  0  0  0  0  0  0  0  0  0  0
  1 14  1  0  0  0  0
  1 32  3  0  0  0  0
  2  3  2  0  0  0  0
  2 12  1  0  0  0  0
  3 13  1  0  0  0  0
  4  8  1  0  0  0  0
  4 14  2  0  0  0  0
  5  9  2  0  0  0  0
  5 14  1  0  0  0  0
  6 10  1  0  0  0  0
  6 15  2  0  0  0  0
  7 11  2  0  0  0  0
  7 15  1  0  0  0  0
  8 17  2  0  0  0  0
  9 17  1  0  0  0  0
 10 16  2  0  0  0  0
 11 16  1  0  0  0  0
 12 18  2  0  0  0  0
 13 19  2  0  0  0  0
 15 20  1  0  0  0  0
 16 29  1  0  0  0  0
 17 30  1  0  0  0  0
 18 19  1  0  0  0  0
 18 33  1  0  0  0  0
 19 36  1  0  0  0  0
 20 34  2  0  0  0  0
 20 38  1  0  0  0  0
 21 27  1  0  0  0  0
 21 33  2  0  0  0  0
 21 36  1  0  0  0  0
 22 28  1  0  0  0  0
 22 34  1  0  0  0  0
 22 35  2  0  0  0  0
 23 25  1  0  0  0  0
 23 27  1  0  0  0  0
 24 26  1  0  0  0  0
 24 27  1  0  0  0  0
 25 37  1  0  0  0  0
 26 37  1  0  0  0  0
 29 31  1  0  0  0  0
 30 36  1  0  0  0  0
 31 37  1  0  0  0  0
 35 38  1  0  0  0  0
  2 39  1  0  0  0  0
  3 40  1  0  0  0  0
  4 41  1  0  0  0  0
  5 42  1  0  0  0  0
  6 43  1  0  0  0  0
  7 44  1  0  0  0  0
  8 45  1  0  0  0  0
  9 46  1  0  0  0  0
 10 47  1  0  0  0  0
 11 48  1  0  0  0  0
 12 49  1  0  0  0  0
 13 50  1  0  0  0  0
 23 51  1  0  0  0  0
 23 52  1  0  0  0  0
 24 53  1  0  0  0  0
 24 54  1  0  0  0  0
 25 55  1  0  0  0  0
 25 56  1  0  0  0  0
 26 57  1  0  0  0  0
 26 58  1  0  0  0  0
 27 59  1  0  0  0  0
 28 60  1  0  0  0  0
 28 61  1  0  0  0  0
 28 62  1  0  0  0  0
 29 63  1  0  0  0  0
 29 64  1  0  0  0  0
 30 65  1  0  0  0  0
 30 66  1  0  0  0  0
 31 67  1  0  0  0  0
 31 68  1  0  0  0  0
 37 69  1  0  0  0  0
M  CHG  1  37   1
M  END
> <SMILES>
Cc1noc(n1)-c1ccc(cc1)CCN1CCC(CC1)c1nc2ccccc2n1Cc1ccc(cc1)C#N

> <FORMATTED_ID>
H3D-008166

> <MOLFORMULA>
C31H30N6O

> <Exact Mass>
502.25

> <XLogP>
7.39

> <TPSA_NOPS>
84.1

> <s_m_source_file>
ligprep_h3d.sdf

> <i_m_source_file_index>
2711

> <i_lp_mmshare_version>
55123

> <i_f3d_flags>
0

> <s_epik_input>
W0NIM11jMW5vYyhuMSktYzJbY0hdW2NIXWMoW2NIXVtjSF0yKVtDSDJdW0NIMl1OM1tDSDJdW0NIMl1bQ0hdKFtDSDJdW0NIMl0zKWMobjQpbihjKGM0NSlbY0hdW2NIXVtjSF1bY0hdNSlbQ0gyXWM2W2NIXVtjSF1jKEMjTilbY0hdW2NIXTY=

> <s_epik_cmdline>
J2VwaWtfcHl0aG9uJywgJy1waHQnLCAnMC41JywgJy1waCcsICc3LjUnLCAnLXRuJywgJzgnLCAnLW1hJywgJzUwMCcsICctaW1hZScsICc8aW5maWxlLm1hZT4nLCAnLW9tYWUnLCAnPG91dGZpbGUubWFlPic=

> <r_lp_tautomer_probability>
1

> <r_epik_Ionization_Penalty>
0.0494945

> <r_epik_Ionization_Penalty_Charging>
0.0392571

> <r_epik_Ionization_Penalty_Neutral>
0.0102374

> <r_epik_State_Penalty>
-0

> <r_epik_Charging_Adjusted_Penalty>
0.0392571

> <i_epik_Tot_Q>
1

> <i_epik_Tot_abs_Q>
1

> <s_lp_Force_Field>
S-OPLS

> <r_lp_Energy>
41.3201

> <b_lp_Chiralities_Consistent>
1

> <s_lp_Variant>
ligprep_h3d.sdf:2711-1

> <ROCS_ShapeQuery>
_7L13

> <ROCS_TanimotoCombo>
0.650 

> <ROCS_ShapeTanimoto>
0.598 

> <ROCS_ColorTanimoto>
0.052 

> <ROCS_RefTversky>
0.768 

> <ROCS_RefColorTversky>
0.113 

> <ROCS_RefTverskyCombo>
0.881 

> <ROCS_FitTversky>
0.730 

> <ROCS_FitColorTversky>
0.087 

> <ROCS_FitTverskyCombo>
0.817 

> <ROCS_ColorScore>
-1.032

> <ROCS_Overlap>
1278.699

> <ROCS_Rank>
569                 

$$$$
ligprep_h3d.sdf:777_1173
  -OEChem-08212117123D

 64 68  0     0  0  0  0  0  0999 V2000
  -19.4263   -3.9192  -32.2576 C   0  0  0  0  0  0  0  0  0  0  0  0
  -20.0246   -6.2567  -32.1334 C   0  0  0  0  0  0  0  0  0  0  0  0
  -18.7984   -4.1450  -33.4825 C   0  0  0  0  0  0  0  0  0  0  0  0
  -19.3967   -6.4824  -33.3584 C   0  0  0  0  0  0  0  0  0  0  0  0
  -16.7341   -6.1778  -26.3344 C   0  0  0  0  0  0  0  0  0  0  0  0
  -22.6770   -4.1655  -29.0576 C   0  0  0  0  0  0  0  0  0  0  0  0
  -20.6098   -4.5036  -25.4684 C   0  0  0  0  0  0  0  0  0  0  0  0
  -16.5310   -4.7873  -26.4189 C   0  0  0  0  0  0  0  0  0  0  0  0
  -20.5871   -6.4182  -37.8543 C   0  0  0  0  0  0  0  0  0  0  0  0
  -19.9643   -5.4897  -37.0540 C   0  0  0  0  0  0  0  0  0  0  0  0
  -19.1417   -7.5092  -36.7358 C   0  0  0  0  0  0  0  0  0  0  0  0
  -20.6318   -4.6265  -27.8828 C   0  0  0  0  0  0  0  0  0  0  0  0
  -20.0394   -4.9751  -31.5830 C   0  0  0  0  0  0  0  0  0  0  0  0
  -20.6935   -4.7398  -30.3066 C   0  0  0  0  0  0  0  0  0  0  0  0
  -18.7836   -5.4265  -34.0329 C   0  0  0  0  0  0  0  0  0  0  0  0
  -22.0388   -4.3940  -30.2793 C   0  0  0  0  0  0  0  0  0  0  0  0
  -19.9896   -4.8563  -29.1114 C   0  0  0  0  0  0  0  0  0  0  0  0
  -21.9975   -4.2752  -27.8475 C   0  0  0  0  0  0  0  0  0  0  0  0
  -19.9473   -4.7368  -26.6649 C   0  0  0  0  0  0  0  0  0  0  0  0
  -21.9461   -4.1652  -25.5344 C   0  0  0  0  0  0  0  0  0  0  0  0
  -18.0962   -6.3317  -26.4200 C   0  0  0  0  0  0  0  0  0  0  0  0
  -22.6993   -3.9094  -24.3186 C   0  0  0  0  0  0  0  0  0  0  0  0
  -22.8416   -4.2540  -31.5337 C   0  0  0  0  0  0  0  0  0  0  0  0
  -18.5386   -5.2334  -29.2195 C   0  0  0  0  0  0  0  0  0  0  0  0
  -18.9280   -7.5509  -26.3925 C   0  0  0  0  0  0  0  0  0  0  0  0
  -18.1121   -5.6680  -35.3424 C   0  0  0  0  0  0  0  0  0  0  0  0
  -24.9542   -3.9847  -23.2229 C   0  0  0  0  0  0  0  0  0  0  0  0
  -26.0766   -5.0059  -23.2532 C   0  0  0  0  0  0  0  0  0  0  0  0
  -20.0707   -7.6735  -37.6512 N   0  0  0  0  0  0  0  0  0  0  0  0
  -17.6728   -4.1065  -26.5484 N   0  0  0  0  0  0  0  0  0  0  0  0
  -22.6431   -4.0482  -26.6879 N   0  0  0  0  0  0  0  0  0  0  0  0
  -19.0412   -6.2035  -36.3430 N   0  0  0  0  0  0  0  0  0  0  0  0
  -18.6064   -5.0732  -26.5460 N   0  0  0  0  0  0  0  0  0  0  0  0
  -24.0679   -4.2050  -24.3430 N   0  0  0  0  0  0  0  0  0  0  0  0
  -22.1391   -3.4287  -23.3165 O   0  0  0  0  0  0  0  0  0  0  0  0
  -26.9257   -4.8078  -22.1301 O   0  0  0  0  0  0  0  0  0  0  0  0
  -19.4287   -2.9146  -31.8412 H   0  0  0  0  0  0  0  0  0  0  0  0
  -20.4987   -7.0899  -31.6201 H   0  0  0  0  0  0  0  0  0  0  0  0
  -18.3223   -3.3167  -34.0005 H   0  0  0  0  0  0  0  0  0  0  0  0
  -19.3905   -7.4841  -33.7802 H   0  0  0  0  0  0  0  0  0  0  0  0
  -15.9945   -6.9578  -26.2269 H   0  0  0  0  0  0  0  0  0  0  0  0
  -23.7323   -3.8951  -29.0512 H   0  0  0  0  0  0  0  0  0  0  0  0
  -20.1029   -4.5823  -24.5105 H   0  0  0  0  0  0  0  0  0  0  0  0
  -15.5986   -4.2420  -26.3917 H   0  0  0  0  0  0  0  0  0  0  0  0
  -21.3812   -6.2467  -38.5663 H   0  0  0  0  0  0  0  0  0  0  0  0
  -20.0937   -4.4231  -36.9339 H   0  0  0  0  0  0  0  0  0  0  0  0
  -18.5170   -8.2895  -36.3229 H   0  0  0  0  0  0  0  0  0  0  0  0
  -22.7886   -3.2240  -31.9027 H   0  0  0  0  0  0  0  0  0  0  0  0
  -22.4714   -4.9271  -32.3156 H   0  0  0  0  0  0  0  0  0  0  0  0
  -23.8928   -4.5115  -31.3594 H   0  0  0  0  0  0  0  0  0  0  0  0
  -18.4358   -6.3211  -29.1932 H   0  0  0  0  0  0  0  0  0  0  0  0
  -18.1095   -4.8563  -30.1520 H   0  0  0  0  0  0  0  0  0  0  0  0
  -17.9640   -4.8000  -28.3961 H   0  0  0  0  0  0  0  0  0  0  0  0
  -19.2244   -7.8064  -25.3620 H   0  0  0  0  0  0  0  0  0  0  0  0
  -19.8500   -7.4363  -26.9877 H   0  0  0  0  0  0  0  0  0  0  0  0
  -18.3990   -8.4223  -26.8150 H   0  0  0  0  0  0  0  0  0  0  0  0
  -17.6743   -4.7448  -35.7545 H   0  0  0  0  0  0  0  0  0  0  0  0
  -17.2767   -6.3802  -35.2492 H   0  0  0  0  0  0  0  0  0  0  0  0
  -25.3443   -2.9641  -23.2898 H   0  0  0  0  0  0  0  0  0  0  0  0
  -24.3719   -4.0859  -22.3021 H   0  0  0  0  0  0  0  0  0  0  0  0
  -25.6643   -6.0178  -23.1908 H   0  0  0  0  0  0  0  0  0  0  0  0
  -26.6746   -4.9198  -24.1663 H   0  0  0  0  0  0  0  0  0  0  0  0
  -24.4877   -4.5360  -25.2056 H   0  0  0  0  0  0  0  0  0  0  0  0
  -27.6260   -5.4776  -22.1875 H   0  0  0  0  0  0  0  0  0  0  0  0
  1  3  1  0  0  0  0
  1 13  2  0  0  0  0
  2  4  2  0  0  0  0
  2 13  1  0  0  0  0
  3 15  2  0  0  0  0
  4 15  1  0  0  0  0
  5  8  1  0  0  0  0
  5 21  2  0  0  0  0
  6 16  2  0  0  0  0
  6 18  1  0  0  0  0
  7 19  1  0  0  0  0
  7 20  2  0  0  0  0
  8 30  2  0  0  0  0
  9 10  2  0  0  0  0
  9 29  1  0  0  0  0
 10 32  1  0  0  0  0
 11 29  2  0  0  0  0
 11 32  1  0  0  0  0
 12 17  1  0  0  0  0
 12 18  1  0  0  0  0
 12 19  2  0  0  0  0
 13 14  1  0  0  0  0
 14 16  1  0  0  0  0
 14 17  2  0  0  0  0
 15 26  1  0  0  0  0
 16 23  1  0  0  0  0
 17 24  1  0  0  0  0
 18 31  2  0  0  0  0
 19 33  1  0  0  0  0
 20 22  1  0  0  0  0
 20 31  1  0  0  0  0
 21 25  1  0  0  0  0
 21 33  1  0  0  0  0
 22 34  1  0  0  0  0
 22 35  2  0  0  0  0
 26 32  1  0  0  0  0
 27 28  1  0  0  0  0
 27 34  1  0  0  0  0
 28 36  1  0  0  0  0
 30 33  1  0  0  0  0
  1 37  1  0  0  0  0
  2 38  1  0  0  0  0
  3 39  1  0  0  0  0
  4 40  1  0  0  0  0
  5 41  1  0  0  0  0
  6 42  1  0  0  0  0
  7 43  1  0  0  0  0
  8 44  1  0  0  0  0
  9 45  1  0  0  0  0
 10 46  1  0  0  0  0
 11 47  1  0  0  0  0
 23 48  1  0  0  0  0
 23 49  1  0  0  0  0
 23 50  1  0  0  0  0
 24 51  1  0  0  0  0
 24 52  1  0  0  0  0
 24 53  1  0  0  0  0
 25 54  1  0  0  0  0
 25 55  1  0  0  0  0
 25 56  1  0  0  0  0
 26 57  1  0  0  0  0
 26 58  1  0  0  0  0
 27 59  1  0  0  0  0
 27 60  1  0  0  0  0
 28 61  1  0  0  0  0
 28 62  1  0  0  0  0
 34 63  1  0  0  0  0
 36 64  1  0  0  0  0
M  END
> <SMILES>
Cc1cc2nc(cc(c2c(c1-c1ccc(cc1)Cn1ccnc1)C)-n1nccc1C)C(=O)NCCO

> <FORMATTED_ID>
H3D-005314

> <MOLFORMULA>
C28H28N6O2

> <Exact Mass>
480.23

> <XLogP>
4.3

> <TPSA_NOPS>
97.9

> <s_m_source_file>
ligprep_h3d.sdf

> <i_m_source_file_index>
777

> <i_lp_mmshare_version>
55123

> <i_f3d_flags>
0

> <s_epik_input>
W09IXVtDSDJdW0NIMl1bTkhdQyg9TyljKG4xKVtjSF1jKC1uMm5bY0hdW2NIXWMyW0NIM10pYyhjMTMpYyhbQ0gzXSljKGMoW0NIM10pW2NIXTMpLWM0W2NIXVtjSF1jKFtjSF1bY0hdNClbQ0gyXW41W2NIXVtjSF1uW2NIXTU=

> <s_epik_cmdline>
J2VwaWtfcHl0aG9uJywgJy1waHQnLCAnMC41JywgJy1waCcsICc3LjUnLCAnLXRuJywgJzgnLCAnLW1hJywgJzUwMCcsICctaW1hZScsICc8aW5maWxlLm1hZT4nLCAnLW9tYWUnLCAnPG91dGZpbGUubWFlPic=

> <r_lp_tautomer_probability>
1

> <r_epik_Ionization_Penalty>
0.126362

> <r_epik_Ionization_Penalty_Charging>
0.126343

> <r_epik_Ionization_Penalty_Neutral>
1.871e-05

> <r_epik_State_Penalty>
0.115795

> <r_epik_Charging_Adjusted_Penalty>
0.242138

> <i_epik_Tot_Q>
0

> <i_epik_Tot_abs_Q>
0

> <s_lp_Force_Field>
S-OPLS

> <r_lp_Energy>
51.3343

> <b_lp_Chiralities_Consistent>
1

> <s_lp_Variant>
ligprep_h3d.sdf:777-1

> <ROCS_ShapeQuery>
_7L13

> <ROCS_TanimotoCombo>
0.776 

> <ROCS_ShapeTanimoto>
0.616 

> <ROCS_ColorTanimoto>
0.160 

> <ROCS_RefTversky>
0.768 

> <ROCS_RefColorTversky>
0.317 

> <ROCS_RefTverskyCombo>
1.084 

> <ROCS_FitTversky>
0.757 

> <ROCS_FitColorTversky>
0.244 

> <ROCS_FitTverskyCombo>
1.001 

> <ROCS_ColorScore>
-2.897

> <ROCS_Overlap>
1276.052

> <ROCS_Rank>
570                 

$$$$
ligprep_h3d.sdf:1225_1537
  -OEChem-08212117123D

 74 78  0     1  0  0  0  0  0999 V2000
  -20.4034   -3.8497  -32.1875 C   0  0  0  0  0  0  0  0  0  0  0  0
  -20.7300   -6.2319  -31.9513 C   0  0  0  0  0  0  0  0  0  0  0  0
  -19.9061   -4.0456  -33.4758 C   0  0  0  0  0  0  0  0  0  0  0  0
  -20.2327   -6.4278  -33.2397 C   0  0  0  0  0  0  0  0  0  0  0  0
  -16.7967   -5.6387  -26.5996 C   0  0  0  0  0  0  0  0  0  0  0  0
  -23.2031   -4.3362  -28.6108 C   0  0  0  0  0  0  0  0  0  0  0  0
  -20.6973   -4.3505  -25.2956 C   0  0  0  0  0  0  0  0  0  0  0  0
  -16.7547   -4.2378  -26.7320 C   0  0  0  0  0  0  0  0  0  0  0  0
  -20.9947   -4.5471  -27.6867 C   0  0  0  0  0  0  0  0  0  0  0  0
  -20.8153   -4.9428  -31.4251 C   0  0  0  0  0  0  0  0  0  0  0  0
  -21.3334   -4.7387  -30.0826 C   0  0  0  0  0  0  0  0  0  0  0  0
  -19.8207   -5.3346  -34.0019 C   0  0  0  0  0  0  0  0  0  0  0  0
  -22.6949   -4.5336  -29.8971 C   0  0  0  0  0  0  0  0  0  0  0  0
  -20.4833   -4.7457  -28.9805 C   0  0  0  0  0  0  0  0  0  0  0  0
  -22.3760   -4.3385  -27.4910 C   0  0  0  0  0  0  0  0  0  0  0  0
  -20.1616   -4.5493  -26.5598 C   0  0  0  0  0  0  0  0  0  0  0  0
  -22.0603   -4.1547  -25.2037 C   0  0  0  0  0  0  0  0  0  0  0  0
  -18.1351   -5.9356  -26.5156 C   0  0  0  0  0  0  0  0  0  0  0  0
  -20.0893   -7.4315  -36.8545 C   0  0  0  0  0  0  0  0  0  0  0  0
  -22.6856   -3.9421  -23.9096 C   0  0  0  0  0  0  0  0  0  0  0  0
  -22.0301   -6.3621  -37.7228 C   0  0  0  0  0  0  0  0  0  0  0  0
  -21.5509   -5.6077  -36.4985 C   0  0  0  0  0  0  0  0  0  0  0  0
  -21.3942   -7.7391  -37.5643 C   0  0  1  0  0  0  0  0  0  0  0  0
  -23.6523   -4.5152  -31.0463 C   0  0  0  0  0  0  0  0  0  0  0  0
  -19.0237   -4.9733  -29.2585 C   0  0  0  0  0  0  0  0  0  0  0  0
  -18.8229   -7.2331  -26.3659 C   0  0  0  0  0  0  0  0  0  0  0  0
  -28.4647   -2.9646  -24.0241 C   0  0  0  0  0  0  0  0  0  0  0  0
  -19.2888   -5.5441  -35.3793 C   0  0  0  0  0  0  0  0  0  0  0  0
  -24.7723   -4.2182  -22.5456 C   0  0  0  0  0  0  0  0  0  0  0  0
  -26.0247   -3.3906  -22.7620 C   0  0  0  0  0  0  0  0  0  0  0  0
  -17.9698   -3.6832  -26.7328 N   0  0  0  0  0  0  0  0  0  0  0  0
  -22.8987   -4.1452  -26.2653 N   0  0  0  0  0  0  0  0  0  0  0  0
  -18.7879   -4.7411  -26.5999 N   0  0  0  0  0  0  0  0  0  0  0  0
  -20.2505   -6.1860  -36.2486 N   0  0  0  0  0  0  0  0  0  0  0  0
  -24.0079   -4.3788  -23.7617 N   0  0  0  0  0  0  0  0  0  0  0  0
  -19.1132   -8.1656  -36.8283 O   0  0  0  0  0  0  0  0  0  0  0  0
  -22.0640   -3.3762  -22.9918 O   0  0  0  0  0  0  0  0  0  0  0  0
  -26.4211   -4.0169  -25.2686 O   0  0  0  0  0  0  0  0  0  0  0  0
  -27.5827   -5.3637  -23.4774 O   0  0  0  0  0  0  0  0  0  0  0  0
  -21.1910   -8.3495  -38.8128 O   0  0  0  0  0  0  0  0  0  0  0  0
  -27.0910   -4.0929  -23.9816 S   0  0  0  0  0  0  0  0  0  0  0  0
  -20.4632   -2.8388  -31.7912 H   0  0  0  0  0  0  0  0  0  0  0  0
  -21.0477   -7.0940  -31.3697 H   0  0  0  0  0  0  0  0  0  0  0  0
  -19.5865   -3.1882  -34.0622 H   0  0  0  0  0  0  0  0  0  0  0  0
  -20.1702   -7.4355  -33.6419 H   0  0  0  0  0  0  0  0  0  0  0  0
  -15.9707   -6.3342  -26.5699 H   0  0  0  0  0  0  0  0  0  0  0  0
  -24.2729   -4.1767  -28.4802 H   0  0  0  0  0  0  0  0  0  0  0  0
  -20.0740   -4.3475  -24.4056 H   0  0  0  0  0  0  0  0  0  0  0  0
  -15.8891   -3.5981  -26.8281 H   0  0  0  0  0  0  0  0  0  0  0  0
  -23.1216   -6.4197  -37.7779 H   0  0  0  0  0  0  0  0  0  0  0  0
  -21.6806   -5.8761  -38.6425 H   0  0  0  0  0  0  0  0  0  0  0  0
  -21.4672   -4.5335  -36.6837 H   0  0  0  0  0  0  0  0  0  0  0  0
  -22.1860   -5.7916  -35.6265 H   0  0  0  0  0  0  0  0  0  0  0  0
  -22.0045   -8.3856  -36.9239 H   0  0  0  0  0  0  0  0  0  0  0  0
  -23.7540   -3.4968  -31.4367 H   0  0  0  0  0  0  0  0  0  0  0  0
  -23.3087   -5.1693  -31.8560 H   0  0  0  0  0  0  0  0  0  0  0  0
  -24.6417   -4.8751  -30.7407 H   0  0  0  0  0  0  0  0  0  0  0  0
  -18.8032   -6.0432  -29.2263 H   0  0  0  0  0  0  0  0  0  0  0  0
  -18.7519   -4.5818  -30.2427 H   0  0  0  0  0  0  0  0  0  0  0  0
  -18.4043   -4.4581  -28.5189 H   0  0  0  0  0  0  0  0  0  0  0  0
  -18.9649   -7.4870  -25.3027 H   0  0  0  0  0  0  0  0  0  0  0  0
  -19.8163   -7.2326  -26.8459 H   0  0  0  0  0  0  0  0  0  0  0  0
  -18.2583   -8.0571  -26.8348 H   0  0  0  0  0  0  0  0  0  0  0  0
  -29.1837   -3.3251  -24.7614 H   0  0  0  0  0  0  0  0  0  0  0  0
  -28.9169   -2.9351  -23.0316 H   0  0  0  0  0  0  0  0  0  0  0  0
  -28.0916   -1.9784  -24.3041 H   0  0  0  0  0  0  0  0  0  0  0  0
  -19.0088   -4.5890  -35.8454 H   0  0  0  0  0  0  0  0  0  0  0  0
  -18.3857   -6.1698  -35.3717 H   0  0  0  0  0  0  0  0  0  0  0  0
  -24.1138   -3.7630  -21.7993 H   0  0  0  0  0  0  0  0  0  0  0  0
  -25.0395   -5.2225  -22.2032 H   0  0  0  0  0  0  0  0  0  0  0  0
  -25.7632   -2.3915  -23.1233 H   0  0  0  0  0  0  0  0  0  0  0  0
  -26.6103   -3.2917  -21.8431 H   0  0  0  0  0  0  0  0  0  0  0  0
  -24.4902   -4.7772  -24.5607 H   0  0  0  0  0  0  0  0  0  0  0  0
  -22.0675   -8.5165  -39.2078 H   0  0  0  0  0  0  0  0  0  0  0  0
  1  3  1  0  0  0  0
  1 10  2  0  0  0  0
  2  4  2  0  0  0  0
  2 10  1  0  0  0  0
  3 12  2  0  0  0  0
  4 12  1  0  0  0  0
  5  8  1  0  0  0  0
  5 18  2  0  0  0  0
  6 13  2  0  0  0  0
  6 15  1  0  0  0  0
  7 16  1  0  0  0  0
  7 17  2  0  0  0  0
  8 31  2  0  0  0  0
  9 14  1  0  0  0  0
  9 15  1  0  0  0  0
  9 16  2  0  0  0  0
 10 11  1  0  0  0  0
 11 13  1  0  0  0  0
 11 14  2  0  0  0  0
 12 28  1  0  0  0  0
 13 24  1  0  0  0  0
 14 25  1  0  0  0  0
 15 32  2  0  0  0  0
 16 33  1  0  0  0  0
 17 20  1  0  0  0  0
 17 32  1  0  0  0  0
 18 26  1  0  0  0  0
 18 33  1  0  0  0  0
 19 23  1  0  0  0  0
 19 34  1  0  0  0  0
 19 36  2  0  0  0  0
 20 35  1  0  0  0  0
 20 37  2  0  0  0  0
 21 22  1  0  0  0  0
 21 23  1  0  0  0  0
 22 34  1  0  0  0  0
 23 40  1  0  0  0  0
 27 41  1  0  0  0  0
 28 34  1  0  0  0  0
 29 30  1  0  0  0  0
 29 35  1  0  0  0  0
 30 41  1  0  0  0  0
 31 33  1  0  0  0  0
 38 41  2  0  0  0  0
 39 41  2  0  0  0  0
  1 42  1  0  0  0  0
  2 43  1  0  0  0  0
  3 44  1  0  0  0  0
  4 45  1  0  0  0  0
  5 46  1  0  0  0  0
  6 47  1  0  0  0  0
  7 48  1  0  0  0  0
  8 49  1  0  0  0  0
 21 50  1  0  0  0  0
 21 51  1  0  0  0  0
 22 52  1  0  0  0  0
 22 53  1  0  0  0  0
 23 54  1  0  0  0  0
 24 55  1  0  0  0  0
 24 56  1  0  0  0  0
 24 57  1  0  0  0  0
 25 58  1  0  0  0  0
 25 59  1  0  0  0  0
 25 60  1  0  0  0  0
 26 61  1  0  0  0  0
 26 62  1  0  0  0  0
 26 63  1  0  0  0  0
 27 64  1  0  0  0  0
 27 65  1  0  0  0  0
 27 66  1  0  0  0  0
 28 67  1  0  0  0  0
 28 68  1  0  0  0  0
 29 69  1  0  0  0  0
 29 70  1  0  0  0  0
 30 71  1  0  0  0  0
 30 72  1  0  0  0  0
 35 73  1  0  0  0  0
 40 74  1  0  0  0  0
M  END
> <SMILES>
Cc1cc2nc(cc(c2c(c1-c1ccc(cc1)CN1CC[C@@H](O)C1=O)C)-n1nccc1C)C(=O)NCCS(=O)(=O)C

> <FORMATTED_ID>
H3D-008383

> <MOLFORMULA>
C30H33N5O5S

> <Exact Mass>
575.22

> <XLogP>
2.66

> <TPSA_NOPS>
142.9

> <s_m_source_file>
ligprep_h3d.sdf

> <i_m_source_file_index>
1225

> <i_lp_mmshare_version>
55123

> <i_f3d_flags>
0

> <s_epik_input>
Tz1TKD1PKShbQ0gzXSlbQ0gyXVtDSDJdW05IXUMoPU8pYyhuMSlbY0hdYygtbjJuW2NIXVtjSF1jMltDSDNdKWMoYzEzKWMoW0NIM10pYyhjKFtDSDNdKVtjSF0zKS1jNFtjSF1bY0hdYyhbY0hdW2NIXTQpW0NIMl1ONVtDSDJdW0NIMl1bQ0BASF0oW09IXSlDNT1P

> <s_epik_cmdline>
J2VwaWtfcHl0aG9uJywgJy1waHQnLCAnMC41JywgJy1waCcsICc3LjUnLCAnLXRuJywgJzgnLCAnLW1hJywgJzUwMCcsICctaW1hZScsICc8aW5maWxlLm1hZT4nLCAnLW9tYWUnLCAnPG91dGZpbGUubWFlPic=

> <r_lp_tautomer_probability>
1

> <r_epik_Ionization_Penalty>
0.000264284

> <r_epik_Ionization_Penalty_Charging>
0

> <r_epik_Ionization_Penalty_Neutral>
0.000264284

> <r_epik_State_Penalty>
-0

> <r_epik_Charging_Adjusted_Penalty>
0

> <i_epik_Tot_Q>
0

> <i_epik_Tot_abs_Q>
0

> <s_lp_Force_Field>
S-OPLS

> <r_lp_Energy>
34.6411

> <b_lp_Chiralities_Consistent>
1

> <s_lp_Variant>
ligprep_h3d.sdf:1225-1

> <ROCS_ShapeQuery>
_7L13

> <ROCS_TanimotoCombo>
0.670 

> <ROCS_ShapeTanimoto>
0.569 

> <ROCS_ColorTanimoto>
0.100 

> <ROCS_RefTversky>
0.768 

> <ROCS_RefColorTversky>
0.227 

> <ROCS_RefTverskyCombo>
0.995 

> <ROCS_FitTversky>
0.688 

> <ROCS_FitColorTversky>
0.153 

> <ROCS_FitTverskyCombo>
0.840 

> <ROCS_ColorScore>
-2.101

> <ROCS_Overlap>
1283.299

> <ROCS_Rank>
571                 

$$$$
ligprep_h3d.sdf:6094_1590
  -OEChem-08212117123D

 62 66  0     0  0  0  0  0  0999 V2000
  -18.6744   -5.6649  -35.6331 C   0  0  0  0  0  0  0  0  0  0  0  0
  -19.6194   -4.7988  -35.0833 C   0  0  0  0  0  0  0  0  0  0  0  0
  -18.8724   -7.0443  -35.5700 C   0  0  0  0  0  0  0  0  0  0  0  0
  -20.9604   -6.6913  -34.4071 C   0  0  0  0  0  0  0  0  0  0  0  0
  -20.7624   -5.3120  -34.4703 C   0  0  0  0  0  0  0  0  0  0  0  0
  -20.0154   -7.5574  -34.9570 C   0  0  0  0  0  0  0  0  0  0  0  0
  -21.5105   -4.3164  -30.0910 C   0  0  0  0  0  0  0  0  0  0  0  0
  -22.6985   -4.7368  -29.5417 C   0  0  0  0  0  0  0  0  0  0  0  0
  -21.3096   -4.7077  -27.9155 C   0  0  0  0  0  0  0  0  0  0  0  0
  -18.5857   -4.0055  -27.8940 C   0  0  0  0  0  0  0  0  0  0  0  0
  -19.2724   -3.9491  -29.0462 C   0  0  0  0  0  0  0  0  0  0  0  0
  -20.5728   -4.7652  -26.6935 C   0  0  0  0  0  0  0  0  0  0  0  0
  -19.2623   -4.4308  -26.6666 C   0  0  0  0  0  0  0  0  0  0  0  0
  -21.2257   -3.9662  -31.4476 C   0  0  0  0  0  0  0  0  0  0  0  0
  -26.0570   -4.4635  -23.5612 C   0  0  0  0  0  0  0  0  0  0  0  0
  -24.9596   -4.3322  -22.5098 C   0  0  0  0  0  0  0  0  0  0  0  0
  -25.6088   -5.3286  -24.7350 C   0  0  0  0  0  0  0  0  0  0  0  0
  -18.3428   -5.7353  -24.6779 C   0  0  0  0  0  0  0  0  0  0  0  0
  -17.1661   -5.2671  -25.4799 C   0  0  0  0  0  0  0  0  0  0  0  0
  -23.6558   -3.8196  -23.1173 C   0  0  0  0  0  0  0  0  0  0  0  0
  -24.3060   -4.8179  -25.3462 C   0  0  0  0  0  0  0  0  0  0  0  0
  -18.4184   -4.4600  -25.4453 C   0  0  0  0  0  0  0  0  0  0  0  0
  -23.1968   -4.6928  -24.2930 C   0  0  0  0  0  0  0  0  0  0  0  0
  -23.9964   -4.9384  -30.2070 C   0  0  0  0  0  0  0  0  0  0  0  0
  -21.7789   -4.3787  -33.8789 C   0  0  0  0  0  0  0  0  0  0  0  0
  -21.9213   -4.1300  -24.9171 C   0  0  0  0  0  0  0  0  0  0  0  0
  -22.5688   -4.9769  -28.1977 N   0  0  0  0  0  0  0  0  0  0  0  0
  -20.6180   -4.2971  -29.0502 N   0  0  0  0  0  0  0  0  0  0  0  0
  -21.9649   -4.6077  -32.4640 N   0  0  0  0  0  0  0  0  0  0  0  0
  -20.3331   -3.1301  -31.7356 O   0  0  0  0  0  0  0  0  0  0  0  0
  -21.2827   -5.1639  -25.6426 O   0  0  0  0  0  0  0  0  0  0  0  0
  -20.2055   -8.8819  -34.8960 F   0  0  0  0  0  0  0  0  0  0  0  0
  -17.7845   -5.2655  -36.1109 H   0  0  0  0  0  0  0  0  0  0  0  0
  -19.4565   -3.7255  -35.1370 H   0  0  0  0  0  0  0  0  0  0  0  0
  -18.1364   -7.7183  -35.9977 H   0  0  0  0  0  0  0  0  0  0  0  0
  -21.8480   -7.1005  -33.9322 H   0  0  0  0  0  0  0  0  0  0  0  0
  -17.5350   -3.7383  -27.8670 H   0  0  0  0  0  0  0  0  0  0  0  0
  -18.8171   -3.6408  -29.9795 H   0  0  0  0  0  0  0  0  0  0  0  0
  -26.9544   -4.8969  -23.1053 H   0  0  0  0  0  0  0  0  0  0  0  0
  -26.3323   -3.4667  -23.9272 H   0  0  0  0  0  0  0  0  0  0  0  0
  -25.2896   -3.6516  -21.7166 H   0  0  0  0  0  0  0  0  0  0  0  0
  -24.7844   -5.3082  -22.0406 H   0  0  0  0  0  0  0  0  0  0  0  0
  -25.4715   -6.3626  -24.3954 H   0  0  0  0  0  0  0  0  0  0  0  0
  -26.3934   -5.3457  -25.5001 H   0  0  0  0  0  0  0  0  0  0  0  0
  -18.8726   -6.6131  -25.0285 H   0  0  0  0  0  0  0  0  0  0  0  0
  -18.2809   -5.6549  -23.5991 H   0  0  0  0  0  0  0  0  0  0  0  0
  -16.3137   -4.8721  -24.9398 H   0  0  0  0  0  0  0  0  0  0  0  0
  -16.9069   -5.8312  -26.3679 H   0  0  0  0  0  0  0  0  0  0  0  0
  -23.7980   -2.7846  -23.4540 H   0  0  0  0  0  0  0  0  0  0  0  0
  -22.8800   -3.7970  -22.3426 H   0  0  0  0  0  0  0  0  0  0  0  0
  -23.9891   -5.4998  -26.1444 H   0  0  0  0  0  0  0  0  0  0  0  0
  -24.4868   -3.8424  -25.8157 H   0  0  0  0  0  0  0  0  0  0  0  0
  -18.4245   -3.5308  -24.9111 H   0  0  0  0  0  0  0  0  0  0  0  0
  -22.9702   -5.6967  -23.9097 H   0  0  0  0  0  0  0  0  0  0  0  0
  -24.0963   -5.9698  -30.5869 H   0  0  0  0  0  0  0  0  0  0  0  0
  -24.8473   -4.7510  -29.5278 H   0  0  0  0  0  0  0  0  0  0  0  0
  -24.1375   -4.2541  -31.0629 H   0  0  0  0  0  0  0  0  0  0  0  0
  -21.4707   -3.3362  -34.0141 H   0  0  0  0  0  0  0  0  0  0  0  0
  -22.7517   -4.4962  -34.3678 H   0  0  0  0  0  0  0  0  0  0  0  0
  -21.2534   -3.7716  -24.1347 H   0  0  0  0  0  0  0  0  0  0  0  0
  -22.1693   -3.3133  -25.5939 H   0  0  0  0  0  0  0  0  0  0  0  0
  -22.6329   -5.3231  -32.1962 H   0  0  0  0  0  0  0  0  0  0  0  0
  1  2  1  0  0  0  0
  1  3  2  0  0  0  0
  2  5  2  0  0  0  0
  3  6  1  0  0  0  0
  4  5  1  0  0  0  0
  4  6  2  0  0  0  0
  5 25  1  0  0  0  0
  6 32  1  0  0  0  0
  7  8  2  0  0  0  0
  7 14  1  0  0  0  0
  7 28  1  0  0  0  0
  8 24  1  0  0  0  0
  8 27  1  0  0  0  0
  9 12  1  0  0  0  0
  9 27  2  0  0  0  0
  9 28  1  0  0  0  0
 10 11  2  0  0  0  0
 10 13  1  0  0  0  0
 11 28  1  0  0  0  0
 12 13  2  0  0  0  0
 12 31  1  0  0  0  0
 13 22  1  0  0  0  0
 14 29  1  0  0  0  0
 14 30  2  0  0  0  0
 15 16  1  0  0  0  0
 15 17  1  0  0  0  0
 16 20  1  0  0  0  0
 17 21  1  0  0  0  0
 18 19  1  0  0  0  0
 18 22  1  0  0  0  0
 19 22  1  0  0  0  0
 20 23  1  0  0  0  0
 21 23  1  0  0  0  0
 23 26  1  0  0  0  0
 25 29  1  0  0  0  0
 26 31  1  0  0  0  0
  1 33  1  0  0  0  0
  2 34  1  0  0  0  0
  3 35  1  0  0  0  0
  4 36  1  0  0  0  0
 10 37  1  0  0  0  0
 11 38  1  0  0  0  0
 15 39  1  0  0  0  0
 15 40  1  0  0  0  0
 16 41  1  0  0  0  0
 16 42  1  0  0  0  0
 17 43  1  0  0  0  0
 17 44  1  0  0  0  0
 18 45  1  0  0  0  0
 18 46  1  0  0  0  0
 19 47  1  0  0  0  0
 19 48  1  0  0  0  0
 20 49  1  0  0  0  0
 20 50  1  0  0  0  0
 21 51  1  0  0  0  0
 21 52  1  0  0  0  0
 22 53  1  0  0  0  0
 23 54  1  0  0  0  0
 24 55  1  0  0  0  0
 24 56  1  0  0  0  0
 24 57  1  0  0  0  0
 25 58  1  0  0  0  0
 25 59  1  0  0  0  0
 26 60  1  0  0  0  0
 26 61  1  0  0  0  0
 29 62  1  0  0  0  0
M  END
> <SMILES>
Cc1nc2c(c(ccn2c1C(=O)NCc1cccc(c1)F)C1CC1)OCC1CCCCC1

> <FORMATTED_ID>
H3D-000540

> <MOLFORMULA>
C26H30FN3O2

> <Exact Mass>
435.23

> <XLogP>
6

> <TPSA_NOPS>
55.6

> <s_m_source_file>
ligprep_h3d.sdf

> <i_m_source_file_index>
6094

> <i_lp_mmshare_version>
55123

> <i_f3d_flags>
0

> <s_epik_input>
W2NIXTFjKEYpW2NIXVtjSF1bY0hdYzFbQ0gyXVtOSF1DKD1PKWMoYyhuMilbQ0gzXSluKGMyMylbY0hdW2NIXWMoW0NIXTRbQ0gyXVtDSDJdNCljM09bQ0gyXVtDSF01W0NIMl1bQ0gyXVtDSDJdW0NIMl1bQ0gyXTU=

> <s_epik_cmdline>
J2VwaWtfcHl0aG9uJywgJy1waHQnLCAnMC41JywgJy1waCcsICc3LjUnLCAnLXRuJywgJzgnLCAnLW1hJywgJzUwMCcsICctaW1hZScsICc8aW5maWxlLm1hZT4nLCAnLW9tYWUnLCAnPG91dGZpbGUubWFlPic=

> <r_lp_tautomer_probability>
1

> <r_epik_Ionization_Penalty>
0.00616277

> <r_epik_Ionization_Penalty_Charging>
0.00616072

> <r_epik_Ionization_Penalty_Neutral>
2.05132e-06

> <r_epik_State_Penalty>
-0

> <r_epik_Charging_Adjusted_Penalty>
0.00616072

> <i_epik_Tot_Q>
0

> <i_epik_Tot_abs_Q>
0

> <s_lp_Force_Field>
S-OPLS

> <r_lp_Energy>
39.9895

> <b_lp_Chiralities_Consistent>
1

> <s_lp_Variant>
ligprep_h3d.sdf:6094-1

> <ROCS_ShapeQuery>
_7L13

> <ROCS_TanimotoCombo>
0.750 

> <ROCS_ShapeTanimoto>
0.684 

> <ROCS_ColorTanimoto>
0.066 

> <ROCS_RefTversky>
0.768 

> <ROCS_RefColorTversky>
0.118 

> <ROCS_RefTverskyCombo>
0.886 

> <ROCS_FitTversky>
0.863 

> <ROCS_FitColorTversky>
0.131 

> <ROCS_FitTverskyCombo>
0.994 

> <ROCS_ColorScore>
-1.056

> <ROCS_Overlap>
1267.052

> <ROCS_Rank>
572                 

$$$$
ligprep_h3d.sdf:1047_984
  -OEChem-08212117123D

 61 66  0     1  0  0  0  0  0999 V2000
  -20.9933   -5.1616  -29.5019 C   0  0  0  0  0  0  0  0  0  0  0  0
  -21.7523   -4.3905  -30.3844 C   0  0  0  0  0  0  0  0  0  0  0  0
  -21.1040   -4.9144  -28.1118 C   0  0  0  0  0  0  0  0  0  0  0  0
  -21.9849   -3.9434  -27.5801 C   0  0  0  0  0  0  0  0  0  0  0  0
  -22.5822   -3.4230  -29.8624 C   0  0  0  0  0  0  0  0  0  0  0  0
  -22.7271   -3.1643  -28.4991 C   0  0  0  0  0  0  0  0  0  0  0  0
  -21.9445   -4.2830  -31.7743 C   0  0  0  0  0  0  0  0  0  0  0  0
  -18.9204   -3.8898  -26.1959 C   0  0  0  0  0  0  0  0  0  0  0  0
  -19.3096   -6.1454  -25.0097 C   0  0  0  0  0  0  0  0  0  0  0  0
  -17.0341   -5.4318  -25.7104 C   0  0  0  0  0  0  0  0  0  0  0  0
  -20.3871   -6.0665  -32.4463 C   0  0  0  0  0  0  0  0  0  0  0  0
  -20.2556   -5.7505  -27.1911 C   0  0  0  0  0  0  0  0  0  0  0  0
  -23.0285   -2.7715  -25.6513 C   0  0  0  0  0  0  0  0  0  0  0  0
  -21.0127   -6.3101  -34.6233 C   0  0  0  0  0  0  0  0  0  0  0  0
  -21.2287   -4.4879  -25.2315 C   0  0  2  0  0  0  0  0  0  0  0  0
  -21.5023   -4.9562  -34.1474 C   0  0  2  0  0  0  0  0  0  0  0  0
  -23.4083   -3.0718  -24.1985 C   0  0  1  0  0  0  0  0  0  0  0  0
  -21.0454   -3.5538  -24.0000 C   0  0  2  0  0  0  0  0  0  0  0  0
  -19.9098   -5.0206  -25.8692 C   0  0  0  0  0  0  0  0  0  0  0  0
  -24.4210   -4.2091  -24.0783 C   0  0  0  0  0  0  0  0  0  0  0  0
  -20.1037   -4.0545  -22.9114 C   0  0  0  0  0  0  0  0  0  0  0  0
  -20.6839   -3.8145  -34.7464 C   0  0  0  0  0  0  0  0  0  0  0  0
  -19.2123   -4.1736  -34.8399 C   0  0  0  0  0  0  0  0  0  0  0  0
  -22.8211   -3.3255  -32.0922 N   0  0  0  0  0  0  0  0  0  0  0  0
  -17.5853   -4.2615  -26.2122 N   0  0  0  0  0  0  0  0  0  0  0  0
  -17.9354   -6.2979  -25.1079 N   0  0  0  0  0  0  0  0  0  0  0  0
  -22.0937   -3.7628  -26.1991 N   0  0  3  0  0  0  0  0  0  0  0  0
  -21.3097   -5.0615  -32.7220 N   0  0  0  0  0  0  0  0  0  0  0  0
  -19.2734   -2.7472  -26.4877 O   0  0  0  0  0  0  0  0  0  0  0  0
  -20.0001   -6.9203  -24.3463 O   0  0  0  0  0  0  0  0  0  0  0  0
  -15.8255   -5.6663  -25.7597 O   0  0  0  0  0  0  0  0  0  0  0  0
  -19.8863   -6.3525  -31.3666 O   0  0  0  0  0  0  0  0  0  0  0  0
  -23.2219   -2.7806  -30.8778 O   0  0  0  0  0  0  0  0  0  0  0  0
  -20.0878   -6.7312  -33.6142 O   0  0  0  0  0  0  0  0  0  0  0  0
  -22.3042   -3.3553  -23.3446 O   0  0  0  0  0  0  0  0  0  0  0  0
  -19.0770   -5.3101  -35.6818 O   0  0  0  0  0  0  0  0  0  0  0  0
  -23.4857   -2.1223  -28.1386 F   0  0  0  0  0  0  0  0  0  0  0  0
  -20.3232   -5.9305  -29.8758 H   0  0  0  0  0  0  0  0  0  0  0  0
  -20.8058   -6.6802  -26.9907 H   0  0  0  0  0  0  0  0  0  0  0  0
  -19.3300   -6.0384  -27.7080 H   0  0  0  0  0  0  0  0  0  0  0  0
  -23.9397   -2.7943  -26.2844 H   0  0  0  0  0  0  0  0  0  0  0  0
  -22.6921   -1.7240  -25.6949 H   0  0  0  0  0  0  0  0  0  0  0  0
  -21.8212   -7.0475  -34.6728 H   0  0  0  0  0  0  0  0  0  0  0  0
  -20.5026   -6.2734  -35.5904 H   0  0  0  0  0  0  0  0  0  0  0  0
  -21.8279   -5.3512  -24.9026 H   0  0  0  0  0  0  0  0  0  0  0  0
  -22.5635   -4.8148  -34.3802 H   0  0  0  0  0  0  0  0  0  0  0  0
  -23.9341   -2.1498  -23.7678 H   0  0  0  0  0  0  0  0  0  0  0  0
  -20.6761   -2.5601  -24.3140 H   0  0  0  0  0  0  0  0  0  0  0  0
  -23.9937   -5.1320  -24.4707 H   0  0  0  0  0  0  0  0  0  0  0  0
  -25.3213   -3.9681  -24.6436 H   0  0  0  0  0  0  0  0  0  0  0  0
  -24.6896   -4.3603  -23.0327 H   0  0  0  0  0  0  0  0  0  0  0  0
  -20.4241   -5.0368  -22.5642 H   0  0  0  0  0  0  0  0  0  0  0  0
  -20.1070   -3.3630  -22.0688 H   0  0  0  0  0  0  0  0  0  0  0  0
  -19.0891   -4.1310  -23.3025 H   0  0  0  0  0  0  0  0  0  0  0  0
  -20.8119   -2.9165  -34.1356 H   0  0  0  0  0  0  0  0  0  0  0  0
  -21.0732   -3.5699  -35.7386 H   0  0  0  0  0  0  0  0  0  0  0  0
  -18.6327   -3.3505  -35.2700 H   0  0  0  0  0  0  0  0  0  0  0  0
  -18.8039   -4.4195  -33.8544 H   0  0  0  0  0  0  0  0  0  0  0  0
  -16.9389   -3.6046  -26.6387 H   0  0  0  0  0  0  0  0  0  0  0  0
  -17.5371   -7.1081  -24.6419 H   0  0  0  0  0  0  0  0  0  0  0  0
  -18.1293   -5.5171  -35.7236 H   0  0  0  0  0  0  0  0  0  0  0  0
  1  2  2  0  0  0  0
  1  3  1  0  0  0  0
  2  5  1  0  0  0  0
  2  7  1  0  0  0  0
  3  4  2  0  0  0  0
  3 12  1  0  0  0  0
  4  6  1  0  0  0  0
  4 27  1  0  0  0  0
  5  6  2  0  0  0  0
  5 33  1  0  0  0  0
  6 37  1  0  0  0  0
  7 24  2  0  0  0  0
  7 28  1  0  0  0  0
  8 19  1  0  0  0  0
  8 25  1  0  0  0  0
  8 29  2  0  0  0  0
  9 19  1  0  0  0  0
  9 26  1  0  0  0  0
  9 30  2  0  0  0  0
 10 25  1  0  0  0  0
 10 26  1  0  0  0  0
 10 31  2  0  0  0  0
 11 28  1  0  0  0  0
 11 32  2  0  0  0  0
 11 34  1  0  0  0  0
 12 19  1  0  0  0  0
 13 17  1  0  0  0  0
 13 27  1  0  0  0  0
 14 16  1  0  0  0  0
 14 34  1  0  0  0  0
 15 18  1  0  0  0  0
 15 19  1  0  0  0  0
 15 27  1  0  0  0  0
 16 22  1  0  0  0  0
 16 28  1  0  0  0  0
 17 20  1  0  0  0  0
 17 35  1  0  0  0  0
 18 21  1  0  0  0  0
 18 35  1  0  0  0  0
 22 23  1  0  0  0  0
 23 36  1  0  0  0  0
 24 33  1  0  0  0  0
  1 38  1  0  0  0  0
 12 39  1  0  0  0  0
 12 40  1  0  0  0  0
 13 41  1  0  0  0  0
 13 42  1  0  0  0  0
 14 43  1  0  0  0  0
 14 44  1  0  0  0  0
 15 45  1  0  0  0  0
 16 46  1  0  0  0  0
 17 47  1  0  0  0  0
 18 48  1  0  0  0  0
 20 49  1  0  0  0  0
 20 50  1  0  0  0  0
 20 51  1  0  0  0  0
 21 52  1  0  0  0  0
 21 53  1  0  0  0  0
 21 54  1  0  0  0  0
 22 55  1  0  0  0  0
 22 56  1  0  0  0  0
 23 57  1  0  0  0  0
 23 58  1  0  0  0  0
 25 59  1  0  0  0  0
 26 60  1  0  0  0  0
 36 61  1  0  0  0  0
M  END
> <SMILES>
C[C@@H]1CN2[C@H]([C@H](C)O1)C1(Cc3cc4c(noc4c(c32)F)N2[C@@H](CCO)COC2=O)C(=O)NC(=O)NC1=O

> <FORMATTED_ID>
H3D-006609

> <MOLFORMULA>
C23H24FN5O8

> <Exact Mass>
517.16

> <XLogP>
-0.04

> <TPSA_NOPS>
163.8

> <s_m_source_file>
ligprep_h3d.sdf

> <i_m_source_file_index>
1047

> <i_lp_mmshare_version>
55123

> <i_f3d_flags>
0

> <s_epik_input>
Tz1DMVtOSF1DKD1PKVtOSF1DKD1PKUMxMltDQEBIXTNOKFtDSDJdW0NAQEhdKFtDSDNdKU9bQ0BIXTNbQ0gzXSljNGMoW0NIMl0yKVtjSF1jNWMoYzRGKW9uYzVONltDQEBIXShbQ0gyXVtDSDJdW09IXSlbQ0gyXU9DNj1P

> <s_epik_cmdline>
J2VwaWtfcHl0aG9uJywgJy1waHQnLCAnMC41JywgJy1waCcsICc3LjUnLCAnLXRuJywgJzgnLCAnLW1hJywgJzUwMCcsICctaW1hZScsICc8aW5maWxlLm1hZT4nLCAnLW9tYWUnLCAnPG91dGZpbGUubWFlPic=

> <r_lp_tautomer_probability>
1

> <r_epik_Ionization_Penalty>
0.369125

> <r_epik_Ionization_Penalty_Charging>
0

> <r_epik_Ionization_Penalty_Neutral>
0.369125

> <r_epik_State_Penalty>
0.366447

> <r_epik_Charging_Adjusted_Penalty>
0.366447

> <i_epik_Tot_Q>
0

> <i_epik_Tot_abs_Q>
0

> <s_epik_Chemistry_Notes>
This compound has an ester and may undergo hydrolysis at high or low pH.

> <s_lp_Force_Field>
S-OPLS

> <r_lp_Energy>
35.3452

> <b_lp_Chiralities_Consistent>
1

> <s_lp_Variant>
ligprep_h3d.sdf:1047-1

> <ROCS_ShapeQuery>
_7L13

> <ROCS_TanimotoCombo>
0.723 

> <ROCS_ShapeTanimoto>
0.598 

> <ROCS_ColorTanimoto>
0.125 

> <ROCS_RefTversky>
0.768 

> <ROCS_RefColorTversky>
0.297 

> <ROCS_RefTverskyCombo>
1.064 

> <ROCS_FitTversky>
0.731 

> <ROCS_FitColorTversky>
0.177 

> <ROCS_FitTverskyCombo>
0.908 

> <ROCS_ColorScore>
-2.773

> <ROCS_Overlap>
1278.385

> <ROCS_Rank>
573                 

$$$$
ligprep_h3d.sdf:5415_624
  -OEChem-08212117123D

 57 61  0     0  0  0  0  0  0999 V2000
  -23.6121   -3.7122  -23.6312 C   0  0  0  0  0  0  0  0  0  0  0  0
  -23.8498   -5.3053  -25.4318 C   0  0  0  0  0  0  0  0  0  0  0  0
  -24.9717   -3.8336  -23.3442 C   0  0  0  0  0  0  0  0  0  0  0  0
  -25.2094   -5.4268  -25.1448 C   0  0  0  0  0  0  0  0  0  0  0  0
  -19.4919   -8.1687  -34.2274 C   0  0  0  0  0  0  0  0  0  0  0  0
  -20.1610   -6.5344  -35.8659 C   0  0  0  0  0  0  0  0  0  0  0  0
  -20.6281   -4.9195  -29.1339 C   0  0  0  0  0  0  0  0  0  0  0  0
  -22.4402   -3.0209  -28.0622 C   0  0  0  0  0  0  0  0  0  0  0  0
  -18.9412   -8.9253  -35.2520 C   0  0  0  0  0  0  0  0  0  0  0  0
  -19.5933   -7.3324  -36.8490 C   0  0  0  0  0  0  0  0  0  0  0  0
  -21.5889   -4.3255  -29.9351 C   0  0  0  0  0  0  0  0  0  0  0  0
  -23.0512   -4.4480  -24.6750 C   0  0  0  0  0  0  0  0  0  0  0  0
  -20.1073   -6.9610  -34.5424 C   0  0  0  0  0  0  0  0  0  0  0  0
  -22.4728   -3.3959  -29.3911 C   0  0  0  0  0  0  0  0  0  0  0  0
  -20.5732   -4.5578  -27.7839 C   0  0  0  0  0  0  0  0  0  0  0  0
  -21.4718   -3.6158  -27.2528 C   0  0  0  0  0  0  0  0  0  0  0  0
  -25.7703   -4.6909  -24.1010 C   0  0  0  0  0  0  0  0  0  0  0  0
  -23.0854   -3.5414  -31.6045 C   0  0  0  0  0  0  0  0  0  0  0  0
  -22.3400   -5.9504  -31.7305 C   0  0  0  0  0  0  0  0  0  0  0  0
  -20.7090   -4.0571  -32.2807 C   0  0  0  0  0  0  0  0  0  0  0  0
  -21.2202   -6.8050  -32.3273 C   0  0  0  0  0  0  0  0  0  0  0  0
  -20.7128   -4.7218  -33.6584 C   0  0  0  0  0  0  0  0  0  0  0  0
  -21.8880   -4.5165  -31.4069 C   0  0  0  0  0  0  0  0  0  0  0  0
  -18.3734   -4.4706  -26.8846 C   0  0  0  0  0  0  0  0  0  0  0  0
  -21.5885   -4.3184  -24.9838 C   0  0  0  0  0  0  0  0  0  0  0  0
  -19.0069   -8.4908  -36.5179 N   0  3  0  0  0  0  0  0  0  0  0  0
  -23.3454   -2.9407  -30.3700 N   0  0  0  0  0  0  0  0  0  0  0  0
  -20.6714   -6.1809  -33.5337 N   0  0  0  0  0  0  0  0  0  0  0  0
  -23.6797   -3.3405  -32.6536 O   0  0  0  0  0  0  0  0  0  0  0  0
  -19.6317   -5.1329  -26.9814 O   0  0  0  0  0  0  0  0  0  0  0  0
  -21.4045   -3.2724  -25.9346 O   0  0  0  0  0  0  0  0  0  0  0  0
  -27.0755   -4.8096  -23.8237 F   0  0  0  0  0  0  0  0  0  0  0  0
  -22.9980   -3.0410  -23.0365 H   0  0  0  0  0  0  0  0  0  0  0  0
  -23.4215   -5.8829  -26.2468 H   0  0  0  0  0  0  0  0  0  0  0  0
  -25.4083   -3.2613  -22.5312 H   0  0  0  0  0  0  0  0  0  0  0  0
  -25.8317   -6.0938  -25.7340 H   0  0  0  0  0  0  0  0  0  0  0  0
  -19.4386   -8.5223  -33.2024 H   0  0  0  0  0  0  0  0  0  0  0  0
  -20.6371   -5.5968  -36.1359 H   0  0  0  0  0  0  0  0  0  0  0  0
  -19.9349   -5.6490  -29.5389 H   0  0  0  0  0  0  0  0  0  0  0  0
  -23.1375   -2.2931  -27.6620 H   0  0  0  0  0  0  0  0  0  0  0  0
  -18.4465   -9.8746  -35.1010 H   0  0  0  0  0  0  0  0  0  0  0  0
  -19.5875   -7.0810  -37.9008 H   0  0  0  0  0  0  0  0  0  0  0  0
  -23.1908   -5.9419  -32.4278 H   0  0  0  0  0  0  0  0  0  0  0  0
  -22.7071   -6.4590  -30.8263 H   0  0  0  0  0  0  0  0  0  0  0  0
  -19.7498   -4.2551  -31.7894 H   0  0  0  0  0  0  0  0  0  0  0  0
  -20.7445   -2.9716  -32.4323 H   0  0  0  0  0  0  0  0  0  0  0  0
  -20.4393   -6.9477  -31.5689 H   0  0  0  0  0  0  0  0  0  0  0  0
  -21.5974   -7.8017  -32.5850 H   0  0  0  0  0  0  0  0  0  0  0  0
  -21.6207   -4.4218  -34.1953 H   0  0  0  0  0  0  0  0  0  0  0  0
  -19.8547   -4.3753  -34.2461 H   0  0  0  0  0  0  0  0  0  0  0  0
  -17.7160   -5.0315  -26.2157 H   0  0  0  0  0  0  0  0  0  0  0  0
  -18.5222   -3.4578  -26.5017 H   0  0  0  0  0  0  0  0  0  0  0  0
  -17.9211   -4.4197  -27.8779 H   0  0  0  0  0  0  0  0  0  0  0  0
  -21.0165   -4.0839  -24.0796 H   0  0  0  0  0  0  0  0  0  0  0  0
  -21.1953   -5.2533  -25.3976 H   0  0  0  0  0  0  0  0  0  0  0  0
  -18.5964   -9.0624  -37.2558 H   0  0  0  0  0  0  0  0  0  0  0  0
  -24.0761   -2.2600  -30.1986 H   0  0  0  0  0  0  0  0  0  0  0  0
  1  3  1  0  0  0  0
  1 12  2  0  0  0  0
  2  4  2  0  0  0  0
  2 12  1  0  0  0  0
  3 17  2  0  0  0  0
  4 17  1  0  0  0  0
  5  9  1  0  0  0  0
  5 13  2  0  0  0  0
  6 10  2  0  0  0  0
  6 13  1  0  0  0  0
  7 11  1  0  0  0  0
  7 15  2  0  0  0  0
  8 14  1  0  0  0  0
  8 16  2  0  0  0  0
  9 26  2  0  0  0  0
 10 26  1  0  0  0  0
 11 14  2  0  0  0  0
 11 23  1  0  0  0  0
 12 25  1  0  0  0  0
 13 28  1  0  0  0  0
 14 27  1  0  0  0  0
 15 16  1  0  0  0  0
 15 30  1  0  0  0  0
 16 31  1  0  0  0  0
 17 32  1  0  0  0  0
 18 23  1  0  0  0  0
 18 27  1  0  0  0  0
 18 29  2  0  0  0  0
 19 21  1  0  0  0  0
 19 23  1  0  0  0  0
 20 22  1  0  0  0  0
 20 23  1  0  0  0  0
 21 28  1  0  0  0  0
 22 28  1  0  0  0  0
 24 30  1  0  0  0  0
 25 31  1  0  0  0  0
  1 33  1  0  0  0  0
  2 34  1  0  0  0  0
  3 35  1  0  0  0  0
  4 36  1  0  0  0  0
  5 37  1  0  0  0  0
  6 38  1  0  0  0  0
  7 39  1  0  0  0  0
  8 40  1  0  0  0  0
  9 41  1  0  0  0  0
 10 42  1  0  0  0  0
 19 43  1  0  0  0  0
 19 44  1  0  0  0  0
 20 45  1  0  0  0  0
 20 46  1  0  0  0  0
 21 47  1  0  0  0  0
 21 48  1  0  0  0  0
 22 49  1  0  0  0  0
 22 50  1  0  0  0  0
 24 51  1  0  0  0  0
 24 52  1  0  0  0  0
 24 53  1  0  0  0  0
 25 54  1  0  0  0  0
 25 55  1  0  0  0  0
 26 56  1  0  0  0  0
 27 57  1  0  0  0  0
M  CHG  1  26   1
M  END
> <SMILES>
COc1cc2c(cc1OCc1ccc(cc1)F)NC(=O)C12CCN(CC1)c1ccncc1

> <FORMATTED_ID>
H3D-015297

> <MOLFORMULA>
C25H24FN3O3

> <Exact Mass>
433.18

> <XLogP>
4.04

> <TPSA_NOPS>
63.7

> <s_m_source_file>
ligprep_h3d.sdf

> <i_m_source_file_index>
5415

> <i_lp_mmshare_version>
55123

> <i_f3d_flags>
0

> <s_epik_input>
W2NIXTFbY0hdYyhGKVtjSF1bY0hdYzFbQ0gyXU9jKGMoW2NIXTIpT1tDSDNdKVtjSF1jKFtOSF1DMz1PKWMyQzM0W0NIMl1bQ0gyXU4oW0NIMl1bQ0gyXTQpYzVbY0hdW2NIXW5bY0hdW2NIXTU=

> <s_epik_cmdline>
J2VwaWtfcHl0aG9uJywgJy1waHQnLCAnMC41JywgJy1waCcsICc3LjUnLCAnLXRuJywgJzgnLCAnLW1hJywgJzUwMCcsICctaW1hZScsICc8aW5maWxlLm1hZT4nLCAnLW9tYWUnLCAnPG91dGZpbGUubWFlPic=

> <r_lp_tautomer_probability>
1

> <r_epik_Ionization_Penalty>
0.00754016

> <r_epik_Ionization_Penalty_Charging>
0.0075369

> <r_epik_Ionization_Penalty_Neutral>
3.25852e-06

> <r_epik_State_Penalty>
-0

> <r_epik_Charging_Adjusted_Penalty>
0.0075369

> <i_epik_Tot_Q>
1

> <i_epik_Tot_abs_Q>
1

> <s_lp_Force_Field>
S-OPLS

> <r_lp_Energy>
72.5986

> <b_lp_Chiralities_Consistent>
1

> <s_lp_Variant>
ligprep_h3d.sdf:5415-1

> <ROCS_ShapeQuery>
_7L13

> <ROCS_TanimotoCombo>
0.766 

> <ROCS_ShapeTanimoto>
0.676 

> <ROCS_ColorTanimoto>
0.090 

> <ROCS_RefTversky>
0.768 

> <ROCS_RefColorTversky>
0.182 

> <ROCS_RefTverskyCombo>
0.950 

> <ROCS_FitTversky>
0.849 

> <ROCS_FitColorTversky>
0.152 

> <ROCS_FitTverskyCombo>
1.001 

> <ROCS_ColorScore>
-1.656

> <ROCS_Overlap>
1267.945

> <ROCS_Rank>
574                 

$$$$
ligprep_h3d.sdf:5162_1006
  -OEChem-08212117123D

 66 71  0     1  0  0  0  0  0999 V2000
  -25.2767   -4.5784  -23.0331 C   0  0  0  0  0  0  0  0  0  0  0  0
  -19.0093   -7.7051  -35.3947 C   0  0  0  0  0  0  0  0  0  0  0  0
  -18.4533   -6.5306  -35.8979 C   0  0  0  0  0  0  0  0  0  0  0  0
  -24.1223   -3.8080  -22.8939 C   0  0  0  0  0  0  0  0  0  0  0  0
  -25.4848   -5.3192  -24.1965 C   0  0  0  0  0  0  0  0  0  0  0  0
  -19.8266   -7.6814  -34.2588 C   0  0  0  0  0  0  0  0  0  0  0  0
  -18.6952   -5.2981  -35.2845 C   0  0  0  0  0  0  0  0  0  0  0  0
  -23.1760   -3.7783  -23.9183 C   0  0  0  0  0  0  0  0  0  0  0  0
  -24.5385   -5.2895  -25.2208 C   0  0  0  0  0  0  0  0  0  0  0  0
  -20.8446   -6.0630  -32.4843 C   0  0  0  0  0  0  0  0  0  0  0  0
  -16.7113   -4.5249  -23.8739 C   0  0  0  0  0  0  0  0  0  0  0  0
  -16.2046   -6.6200  -24.3081 C   0  0  0  0  0  0  0  0  0  0  0  0
  -20.0846   -6.4506  -33.6233 C   0  0  0  0  0  0  0  0  0  0  0  0
  -16.6954   -5.4841  -24.9041 C   0  0  0  0  0  0  0  0  0  0  0  0
  -19.5141   -5.2897  -34.1497 C   0  0  0  0  0  0  0  0  0  0  0  0
  -23.3841   -4.5191  -25.0817 C   0  0  0  0  0  0  0  0  0  0  0  0
  -20.7227   -4.6998  -32.3438 C   0  0  0  0  0  0  0  0  0  0  0  0
  -17.1070   -5.3522  -26.3255 C   0  0  0  0  0  0  0  0  0  0  0  0
  -21.3303   -3.8494  -31.3085 C   0  0  0  0  0  0  0  0  0  0  0  0
  -20.0981   -5.2070  -29.6447 C   0  0  0  0  0  0  0  0  0  0  0  0
  -21.1911   -3.8041  -26.2328 C   0  0  0  0  0  0  0  0  0  0  0  0
  -22.2053   -5.3616  -27.2135 C   0  0  0  0  0  0  0  0  0  0  0  0
  -21.5441   -3.4430  -28.8048 C   0  0  0  0  0  0  0  0  0  0  0  0
  -19.8097   -5.0437  -28.1558 C   0  0  2  0  0  0  0  0  0  0  0  0
  -21.0975   -4.3713  -27.6704 C   0  0  0  0  0  0  0  0  0  0  0  0
  -15.4396   -7.1544  -21.9829 C   0  0  0  0  0  0  0  0  0  0  0  0
  -19.5470   -2.8567  -33.5536 C   0  0  0  0  0  0  0  0  0  0  0  0
  -18.5884   -4.1580  -27.9177 C   0  0  0  0  0  0  0  0  0  0  0  0
  -16.2661   -5.0093  -22.7115 N   0  0  0  0  0  0  0  0  0  0  0  0
  -15.9659   -6.2853  -23.0077 N   0  0  0  0  0  0  0  0  0  0  0  0
  -19.9186   -4.2423  -33.3530 N   0  0  0  0  0  0  0  0  0  0  0  0
  -22.4333   -4.4896  -26.1113 N   0  0  0  0  0  0  0  0  0  0  0  0
  -21.0014   -4.1149  -29.9856 N   0  0  0  0  0  0  0  0  0  0  0  0
  -18.0757   -4.3860  -26.6089 N   0  0  0  0  0  0  0  0  0  0  0  0
  -16.6057   -6.0938  -27.1666 O   0  0  0  0  0  0  0  0  0  0  0  0
  -22.0812   -2.9520  -31.6856 O   0  0  0  0  0  0  0  0  0  0  0  0
  -26.0137   -4.6013  -22.2354 H   0  0  0  0  0  0  0  0  0  0  0  0
  -18.8073   -8.6517  -35.8890 H   0  0  0  0  0  0  0  0  0  0  0  0
  -17.8220   -6.5721  -36.7819 H   0  0  0  0  0  0  0  0  0  0  0  0
  -23.9605   -3.2313  -21.9882 H   0  0  0  0  0  0  0  0  0  0  0  0
  -26.3839   -5.9191  -24.3047 H   0  0  0  0  0  0  0  0  0  0  0  0
  -20.2528   -8.6047  -33.8769 H   0  0  0  0  0  0  0  0  0  0  0  0
  -18.2591   -4.3871  -35.6805 H   0  0  0  0  0  0  0  0  0  0  0  0
  -22.2799   -3.1747  -23.8001 H   0  0  0  0  0  0  0  0  0  0  0  0
  -24.7113   -5.8711  -26.1229 H   0  0  0  0  0  0  0  0  0  0  0  0
  -21.4176   -6.7157  -31.8392 H   0  0  0  0  0  0  0  0  0  0  0  0
  -17.0296   -3.4928  -23.9184 H   0  0  0  0  0  0  0  0  0  0  0  0
  -16.0109   -7.6143  -24.6877 H   0  0  0  0  0  0  0  0  0  0  0  0
  -19.2069   -5.1929  -30.2800 H   0  0  0  0  0  0  0  0  0  0  0  0
  -20.6423   -6.1391  -29.8375 H   0  0  0  0  0  0  0  0  0  0  0  0
  -20.4412   -4.1780  -25.5277 H   0  0  0  0  0  0  0  0  0  0  0  0
  -21.2877   -2.7192  -26.1432 H   0  0  0  0  0  0  0  0  0  0  0  0
  -23.0761   -5.4680  -27.8659 H   0  0  0  0  0  0  0  0  0  0  0  0
  -21.8575   -6.3504  -26.8944 H   0  0  0  0  0  0  0  0  0  0  0  0
  -22.6290   -3.3249  -28.8850 H   0  0  0  0  0  0  0  0  0  0  0  0
  -21.0751   -2.4557  -28.7345 H   0  0  0  0  0  0  0  0  0  0  0  0
  -19.6411   -6.0152  -27.6788 H   0  0  0  0  0  0  0  0  0  0  0  0
  -14.3499   -7.0690  -21.9950 H   0  0  0  0  0  0  0  0  0  0  0  0
  -15.8360   -6.8516  -21.0097 H   0  0  0  0  0  0  0  0  0  0  0  0
  -15.7458   -8.1837  -22.1896 H   0  0  0  0  0  0  0  0  0  0  0  0
  -20.2960   -2.3975  -34.2041 H   0  0  0  0  0  0  0  0  0  0  0  0
  -19.5142   -2.3450  -32.5877 H   0  0  0  0  0  0  0  0  0  0  0  0
  -18.5574   -2.8114  -34.0168 H   0  0  0  0  0  0  0  0  0  0  0  0
  -17.8479   -4.4205  -28.6712 H   0  0  0  0  0  0  0  0  0  0  0  0
  -18.9129   -3.1248  -28.0283 H   0  0  0  0  0  0  0  0  0  0  0  0
  -18.4826   -3.8562  -25.8319 H   0  0  0  0  0  0  0  0  0  0  0  0
  1  4  2  0  0  0  0
  1  5  1  0  0  0  0
  2  3  2  0  0  0  0
  2  6  1  0  0  0  0
  3  7  1  0  0  0  0
  4  8  1  0  0  0  0
  5  9  2  0  0  0  0
  6 13  2  0  0  0  0
  7 15  2  0  0  0  0
  8 16  2  0  0  0  0
  9 16  1  0  0  0  0
 10 13  1  0  0  0  0
 10 17  2  0  0  0  0
 11 14  1  0  0  0  0
 11 29  2  0  0  0  0
 12 14  2  0  0  0  0
 12 30  1  0  0  0  0
 13 15  1  0  0  0  0
 14 18  1  0  0  0  0
 15 31  1  0  0  0  0
 16 32  1  0  0  0  0
 17 19  1  0  0  0  0
 17 31  1  0  0  0  0
 18 34  1  0  0  0  0
 18 35  2  0  0  0  0
 19 33  1  0  0  0  0
 19 36  2  0  0  0  0
 20 24  1  0  0  0  0
 20 33  1  0  0  0  0
 21 25  1  0  0  0  0
 21 32  1  0  0  0  0
 22 25  1  0  0  0  0
 22 32  1  0  0  0  0
 23 25  1  0  0  0  0
 23 33  1  0  0  0  0
 24 25  1  0  0  0  0
 24 28  1  0  0  0  0
 26 30  1  0  0  0  0
 27 31  1  0  0  0  0
 28 34  1  0  0  0  0
 29 30  1  0  0  0  0
  1 37  1  0  0  0  0
  2 38  1  0  0  0  0
  3 39  1  0  0  0  0
  4 40  1  0  0  0  0
  5 41  1  0  0  0  0
  6 42  1  0  0  0  0
  7 43  1  0  0  0  0
  8 44  1  0  0  0  0
  9 45  1  0  0  0  0
 10 46  1  0  0  0  0
 11 47  1  0  0  0  0
 12 48  1  0  0  0  0
 20 49  1  0  0  0  0
 20 50  1  0  0  0  0
 21 51  1  0  0  0  0
 21 52  1  0  0  0  0
 22 53  1  0  0  0  0
 22 54  1  0  0  0  0
 23 55  1  0  0  0  0
 23 56  1  0  0  0  0
 24 57  1  0  0  0  0
 26 58  1  0  0  0  0
 26 59  1  0  0  0  0
 26 60  1  0  0  0  0
 27 61  1  0  0  0  0
 27 62  1  0  0  0  0
 27 63  1  0  0  0  0
 28 64  1  0  0  0  0
 28 65  1  0  0  0  0
 34 66  1  0  0  0  0
M  END
> <SMILES>
Cn1cc(cn1)C(=O)NCC1CN(CC21CN(C2)c1ccccc1)C(=O)c1cc2ccccc2n1C

> <FORMATTED_ID>
H3D-013979

> <MOLFORMULA>
C28H30N6O2

> <Exact Mass>
482.24

> <XLogP>
3.48

> <TPSA_NOPS>
75.4

> <s_m_source_file>
ligprep_h3d.sdf

> <i_m_source_file_index>
5162

> <i_lp_mmshare_version>
55123

> <i_f3d_flags>
0

> <s_epik_input>
W2NIXTFbY0hdW2NIXVtjSF1bY0hdYzFOKFtDSDJdMilbQ0gyXUMyM1tDQEhdKFtDSDJdW05IXUMoPU8pYyhbY0hdbjQpW2NIXW40W0NIM10pW0NIMl1OKFtDSDJdMylDKD1PKWMoW2NIXTUpbihbQ0gzXSljKGM1NilbY0hdW2NIXVtjSF1bY0hdNg==

> <s_epik_cmdline>
J2VwaWtfcHl0aG9uJywgJy1waHQnLCAnMC41JywgJy1waCcsICc3LjUnLCAnLXRuJywgJzgnLCAnLW1hJywgJzUwMCcsICctaW1hZScsICc8aW5maWxlLm1hZT4nLCAnLW9tYWUnLCAnPG91dGZpbGUubWFlPic=

> <r_lp_tautomer_probability>
1

> <r_epik_Ionization_Penalty>
0.000803902

> <r_epik_Ionization_Penalty_Charging>
0

> <r_epik_Ionization_Penalty_Neutral>
0.000803902

> <r_epik_State_Penalty>
-0

> <r_epik_Charging_Adjusted_Penalty>
0

> <i_epik_Tot_Q>
0

> <i_epik_Tot_abs_Q>
0

> <s_lp_Force_Field>
S-OPLS

> <r_lp_Energy>
47.5706

> <b_lp_Chiralities_Consistent>
1

> <s_lp_Variant>
ligprep_h3d.sdf:5162-1

> <ROCS_ShapeQuery>
_7L13

> <ROCS_TanimotoCombo>
0.723 

> <ROCS_ShapeTanimoto>
0.617 

> <ROCS_ColorTanimoto>
0.106 

> <ROCS_RefTversky>
0.768 

> <ROCS_RefColorTversky>
0.201 

> <ROCS_RefTverskyCombo>
0.969 

> <ROCS_FitTversky>
0.759 

> <ROCS_FitColorTversky>
0.182 

> <ROCS_FitTverskyCombo>
0.941 

> <ROCS_ColorScore>
-1.820

> <ROCS_Overlap>
1275.495

> <ROCS_Rank>
575                 

$$$$
ligprep_h3d.sdf:1752_1447
  -OEChem-08212117123D

 57 61  0     0  0  0  0  0  0999 V2000
  -22.4618   -3.6614  -33.8053 C   0  0  0  0  0  0  0  0  0  0  0  0
  -22.2253   -3.6987  -32.4312 C   0  0  0  0  0  0  0  0  0  0  0  0
  -19.5636   -4.5023  -30.0282 C   0  0  0  0  0  0  0  0  0  0  0  0
  -21.5866   -4.3036  -34.6813 C   0  0  0  0  0  0  0  0  0  0  0  0
  -24.6822   -3.5652  -23.0530 C   0  0  0  0  0  0  0  0  0  0  0  0
  -25.4303   -5.6444  -24.0299 C   0  0  0  0  0  0  0  0  0  0  0  0
  -19.3278   -4.5391  -28.6533 C   0  0  0  0  0  0  0  0  0  0  0  0
  -23.6506   -3.4965  -23.9892 C   0  0  0  0  0  0  0  0  0  0  0  0
  -24.3987   -5.5757  -24.9661 C   0  0  0  0  0  0  0  0  0  0  0  0
  -21.9364   -4.3706  -29.6136 C   0  0  0  0  0  0  0  0  0  0  0  0
  -20.2384   -5.0203  -32.8090 C   0  0  0  0  0  0  0  0  0  0  0  0
  -20.8679   -4.4168  -30.5077 C   0  0  0  0  0  0  0  0  0  0  0  0
  -21.1136   -4.3781  -31.9330 C   0  0  0  0  0  0  0  0  0  0  0  0
  -21.6930   -4.4082  -28.2349 C   0  0  0  0  0  0  0  0  0  0  0  0
  -20.4749   -4.9830  -34.1831 C   0  0  0  0  0  0  0  0  0  0  0  0
  -25.5721   -4.6392  -23.0733 C   0  0  0  0  0  0  0  0  0  0  0  0
  -20.3919   -4.4927  -27.7442 C   0  0  0  0  0  0  0  0  0  0  0  0
  -23.5088   -4.5017  -24.9458 C   0  0  0  0  0  0  0  0  0  0  0  0
  -22.8127   -4.3884  -27.2741 C   0  0  0  0  0  0  0  0  0  0  0  0
  -21.0845   -4.4572  -25.5060 C   0  0  0  0  0  0  0  0  0  0  0  0
  -19.5526   -5.6578  -35.1066 C   0  0  0  0  0  0  0  0  0  0  0  0
  -20.4593   -7.9785  -34.5670 C   0  0  0  0  0  0  0  0  0  0  0  0
  -19.4811   -7.4836  -36.7723 C   0  0  0  0  0  0  0  0  0  0  0  0
  -19.6785   -9.2875  -34.5785 C   0  0  0  0  0  0  0  0  0  0  0  0
  -18.7344   -8.8065  -36.6838 C   0  0  0  0  0  0  0  0  0  0  0  0
  -26.6751   -4.7126  -22.0722 C   0  0  0  0  0  0  0  0  0  0  0  0
  -20.1083   -4.5069  -26.3762 N   0  0  0  0  0  0  0  0  0  0  0  0
  -22.4435   -4.4308  -25.9130 N   0  0  0  0  0  0  0  0  0  0  0  0
  -19.8070   -6.9906  -35.4351 N   0  0  0  0  0  0  0  0  0  0  0  0
  -20.7445   -4.3747  -24.1732 N   0  0  0  0  0  0  0  0  0  0  0  0
  -23.9588   -4.3938  -27.7173 O   0  0  0  0  0  0  0  0  0  0  0  0
  -18.6156   -4.9832  -35.5309 O   0  0  0  0  0  0  0  0  0  0  0  0
  -19.4914   -9.7484  -35.9190 O   0  0  0  0  0  0  0  0  0  0  0  0
  -26.6925   -3.6625  -21.1987 F   0  0  0  0  0  0  0  0  0  0  0  0
  -27.9210   -4.7307  -22.6317 F   0  0  0  0  0  0  0  0  0  0  0  0
  -26.6060   -5.8331  -21.2959 F   0  0  0  0  0  0  0  0  0  0  0  0
  -23.3273   -3.1322  -34.1932 H   0  0  0  0  0  0  0  0  0  0  0  0
  -22.9167   -3.1931  -31.7612 H   0  0  0  0  0  0  0  0  0  0  0  0
  -18.7183   -4.5392  -30.7111 H   0  0  0  0  0  0  0  0  0  0  0  0
  -21.7807   -4.2674  -35.7501 H   0  0  0  0  0  0  0  0  0  0  0  0
  -24.7839   -2.7787  -22.3098 H   0  0  0  0  0  0  0  0  0  0  0  0
  -26.1187   -6.4851  -24.0525 H   0  0  0  0  0  0  0  0  0  0  0  0
  -18.3035   -4.6008  -28.2928 H   0  0  0  0  0  0  0  0  0  0  0  0
  -22.9631   -2.6547  -23.9643 H   0  0  0  0  0  0  0  0  0  0  0  0
  -24.2967   -6.3651  -25.7066 H   0  0  0  0  0  0  0  0  0  0  0  0
  -22.9543   -4.3088  -29.9922 H   0  0  0  0  0  0  0  0  0  0  0  0
  -19.3697   -5.5507  -32.4236 H   0  0  0  0  0  0  0  0  0  0  0  0
  -21.4969   -8.1571  -34.8589 H   0  0  0  0  0  0  0  0  0  0  0  0
  -20.4589   -7.5495  -33.5579 H   0  0  0  0  0  0  0  0  0  0  0  0
  -18.8465   -6.7202  -37.2379 H   0  0  0  0  0  0  0  0  0  0  0  0
  -20.3844   -7.5912  -37.3807 H   0  0  0  0  0  0  0  0  0  0  0  0
  -18.6873   -9.1326  -34.1407 H   0  0  0  0  0  0  0  0  0  0  0  0
  -20.1844  -10.0618  -33.9895 H   0  0  0  0  0  0  0  0  0  0  0  0
  -18.5249   -9.2195  -37.6777 H   0  0  0  0  0  0  0  0  0  0  0  0
  -17.7762   -8.6599  -36.1755 H   0  0  0  0  0  0  0  0  0  0  0  0
  -19.7820   -4.3572  -23.9398 H   0  0  0  0  0  0  0  0  0  0  0  0
  -21.4779   -4.3367  -23.5083 H   0  0  0  0  0  0  0  0  0  0  0  0
  1  2  1  0  0  0  0
  1  4  2  0  0  0  0
  2 13  2  0  0  0  0
  3  7  1  0  0  0  0
  3 12  2  0  0  0  0
  4 15  1  0  0  0  0
  5  8  1  0  0  0  0
  5 16  2  0  0  0  0
  6  9  2  0  0  0  0
  6 16  1  0  0  0  0
  7 17  2  0  0  0  0
  8 18  2  0  0  0  0
  9 18  1  0  0  0  0
 10 12  1  0  0  0  0
 10 14  2  0  0  0  0
 11 13  1  0  0  0  0
 11 15  2  0  0  0  0
 12 13  1  0  0  0  0
 14 17  1  0  0  0  0
 14 19  1  0  0  0  0
 15 21  1  0  0  0  0
 16 26  1  0  0  0  0
 17 27  1  0  0  0  0
 18 28  1  0  0  0  0
 19 28  1  0  0  0  0
 19 31  2  0  0  0  0
 20 27  2  0  0  0  0
 20 28  1  0  0  0  0
 20 30  1  0  0  0  0
 21 29  1  0  0  0  0
 21 32  2  0  0  0  0
 22 24  1  0  0  0  0
 22 29  1  0  0  0  0
 23 25  1  0  0  0  0
 23 29  1  0  0  0  0
 24 33  1  0  0  0  0
 25 33  1  0  0  0  0
 26 34  1  0  0  0  0
 26 35  1  0  0  0  0
 26 36  1  0  0  0  0
  1 37  1  0  0  0  0
  2 38  1  0  0  0  0
  3 39  1  0  0  0  0
  4 40  1  0  0  0  0
  5 41  1  0  0  0  0
  6 42  1  0  0  0  0
  7 43  1  0  0  0  0
  8 44  1  0  0  0  0
  9 45  1  0  0  0  0
 10 46  1  0  0  0  0
 11 47  1  0  0  0  0
 22 48  1  0  0  0  0
 22 49  1  0  0  0  0
 23 50  1  0  0  0  0
 23 51  1  0  0  0  0
 24 52  1  0  0  0  0
 24 53  1  0  0  0  0
 25 54  1  0  0  0  0
 25 55  1  0  0  0  0
 30 56  1  0  0  0  0
 30 57  1  0  0  0  0
M  END
> <SMILES>
NC1=Nc2ccc(cc2C(=O)N1c1ccc(cc1)C(F)(F)F)-c1cccc(c1)C(=O)N1CCOCC1

> <FORMATTED_ID>
H3D-002800

> <MOLFORMULA>
C26H21F3N4O3

> <Exact Mass>
494.16

> <XLogP>
4.67

> <TPSA_NOPS>
88.2

> <s_m_source_file>
ligprep_h3d.sdf

> <i_m_source_file_index>
1752

> <i_lp_mmshare_version>
55123

> <i_f3d_flags>
0

> <s_epik_input>
W2NIXTFbY0hdYyhDKEYpKEYpRilbY0hdW2NIXWMxLW4oYyhuMilbTkgyXSljKD1PKWMoYzIzKVtjSF1jKFtjSF1bY0hdMyktYzRbY0hdW2NIXVtjSF1jKFtjSF00KUMoPU8pTjVbQ0gyXVtDSDJdT1tDSDJdW0NIMl01

> <s_epik_cmdline>
J2VwaWtfcHl0aG9uJywgJy1waHQnLCAnMC41JywgJy1waCcsICc3LjUnLCAnLXRuJywgJzgnLCAnLW1hJywgJzUwMCcsICctaW1hZScsICc8aW5maWxlLm1hZT4nLCAnLW9tYWUnLCAnPG91dGZpbGUubWFlPic=

> <r_lp_tautomer_probability>
1

> <r_epik_Ionization_Penalty>
3.61852e-06

> <r_epik_Ionization_Penalty_Charging>
3.91892e-10

> <r_epik_Ionization_Penalty_Neutral>
3.61813e-06

> <r_epik_State_Penalty>
-0

> <r_epik_Charging_Adjusted_Penalty>
3.91892e-10

> <i_epik_Tot_Q>
0

> <i_epik_Tot_abs_Q>
0

> <s_lp_Force_Field>
S-OPLS

> <r_lp_Energy>
55.5111

> <b_lp_Chiralities_Consistent>
1

> <s_lp_Variant>
ligprep_h3d.sdf:1752-1

> <ROCS_ShapeQuery>
_7L13

> <ROCS_TanimotoCombo>
0.728 

> <ROCS_ShapeTanimoto>
0.616 

> <ROCS_ColorTanimoto>
0.112 

> <ROCS_RefTversky>
0.767 

> <ROCS_RefColorTversky>
0.221 

> <ROCS_RefTverskyCombo>
0.989 

> <ROCS_FitTversky>
0.757 

> <ROCS_FitColorTversky>
0.185 

> <ROCS_FitTverskyCombo>
0.942 

> <ROCS_ColorScore>
-2.015

> <ROCS_Overlap>
1275.474

> <ROCS_Rank>
576                 

$$$$
ligprep_h3d.sdf:1054_929
  -OEChem-08212117123D

 68 73  0     1  0  0  0  0  0999 V2000
  -22.0930   -4.0429  -27.2168 C   0  0  0  0  0  0  0  0  0  0  0  0
  -23.1519   -2.8796  -31.5170 C   0  0  0  0  0  0  0  0  0  0  0  0
  -21.0701   -4.3872  -28.1042 C   0  0  0  0  0  0  0  0  0  0  0  0
  -21.8974   -4.2545  -25.8303 C   0  0  0  0  0  0  0  0  0  0  0  0
  -20.6907   -4.7972  -25.3187 C   0  0  0  0  0  0  0  0  0  0  0  0
  -19.9037   -4.9132  -27.5924 C   0  0  0  0  0  0  0  0  0  0  0  0
  -19.6689   -5.1325  -26.2356 C   0  0  0  0  0  0  0  0  0  0  0  0
  -20.8412   -4.3531  -29.4925 C   0  0  0  0  0  0  0  0  0  0  0  0
  -21.7230   -4.3775  -31.7842 C   0  0  0  0  0  0  0  0  0  0  0  0
  -23.4293   -5.7172  -23.3346 C   0  0  0  0  0  0  0  0  0  0  0  0
  -23.6812   -3.2509  -22.6327 C   0  0  0  0  0  0  0  0  0  0  0  0
  -25.6269   -4.7897  -22.6303 C   0  0  0  0  0  0  0  0  0  0  0  0
  -23.0291   -3.8368  -24.9144 C   0  0  0  0  0  0  0  0  0  0  0  0
  -19.4328   -5.7524  -23.3796 C   0  0  0  0  0  0  0  0  0  0  0  0
  -21.3672   -4.1830  -23.0411 C   0  0  2  0  0  0  0  0  0  0  0  0
  -19.8950   -6.5565  -22.1610 C   0  0  1  0  0  0  0  0  0  0  0  0
  -21.1029   -4.5393  -21.5551 C   0  0  2  0  0  0  0  0  0  0  0  0
  -22.8746   -4.2865  -23.4352 C   0  0  0  0  0  0  0  0  0  0  0  0
  -18.7198   -6.9585  -21.2763 C   0  0  0  0  0  0  0  0  0  0  0  0
  -19.9899   -3.7071  -20.9152 C   0  0  0  0  0  0  0  0  0  0  0  0
  -18.8585   -6.5665  -35.7533 C   0  0  0  0  0  0  0  0  0  0  0  0
  -19.8235   -8.8497  -35.5159 C   0  0  0  0  0  0  0  0  0  0  0  0
  -20.5500   -5.6276  -33.5973 C   0  0  0  0  0  0  0  0  0  0  0  0
  -20.3034   -7.1108  -33.7993 C   0  0  0  0  0  0  0  0  0  0  0  0
  -22.6488   -3.7335  -32.4563 N   0  0  0  0  0  0  0  0  0  0  0  0
  -22.5957   -2.9547  -30.3060 N   0  0  0  0  0  0  0  0  0  0  0  0
  -19.6320   -4.8193  -29.8187 N   0  0  0  0  0  0  0  0  0  0  0  0
  -21.6851   -3.9200  -30.5040 N   0  0  0  0  0  0  0  0  0  0  0  0
  -24.7829   -5.8081  -23.0482 N   0  0  0  0  0  0  0  0  0  0  0  0
  -25.0150   -3.5619  -22.4303 N   0  0  0  0  0  0  0  0  0  0  0  0
  -20.5458   -5.0023  -23.9443 N   0  0  3  0  0  0  0  0  0  0  0  0
  -20.8855   -5.3559  -32.2006 N   0  0  0  0  0  0  0  0  0  0  0  0
  -20.0163   -7.3806  -35.2298 N   0  3  0  0  0  0  0  0  0  0  0  0
  -22.7609   -6.7223  -23.5735 O   0  0  0  0  0  0  0  0  0  0  0  0
  -23.2019   -2.1807  -22.2549 O   0  0  0  0  0  0  0  0  0  0  0  0
  -26.8256   -4.9736  -22.4125 O   0  0  0  0  0  0  0  0  0  0  0  0
  -19.0395   -5.1719  -28.6119 O   0  0  0  0  0  0  0  0  0  0  0  0
  -20.8877   -5.9307  -21.3534 O   0  0  0  0  0  0  0  0  0  0  0  0
  -18.5315   -5.7404  -25.8870 F   0  0  0  0  0  0  0  0  0  0  0  0
  -23.0278   -3.6293  -27.5872 H   0  0  0  0  0  0  0  0  0  0  0  0
  -23.9491   -2.1806  -31.7215 H   0  0  0  0  0  0  0  0  0  0  0  0
  -23.1074   -2.7343  -24.9797 H   0  0  0  0  0  0  0  0  0  0  0  0
  -23.9833   -4.2248  -25.3202 H   0  0  0  0  0  0  0  0  0  0  0  0
  -18.6616   -5.0270  -23.0695 H   0  0  0  0  0  0  0  0  0  0  0  0
  -18.9224   -6.4440  -24.0561 H   0  0  0  0  0  0  0  0  0  0  0  0
  -21.0619   -3.1425  -23.2075 H   0  0  0  0  0  0  0  0  0  0  0  0
  -20.3402   -7.5450  -22.5356 H   0  0  0  0  0  0  0  0  0  0  0  0
  -22.0454   -4.2655  -20.9605 H   0  0  0  0  0  0  0  0  0  0  0  0
  -18.2342   -6.0692  -20.8743 H   0  0  0  0  0  0  0  0  0  0  0  0
  -17.9928   -7.5262  -21.8571 H   0  0  0  0  0  0  0  0  0  0  0  0
  -19.0701   -7.5750  -20.4483 H   0  0  0  0  0  0  0  0  0  0  0  0
  -19.0428   -3.9012  -21.4186 H   0  0  0  0  0  0  0  0  0  0  0  0
  -19.8898   -3.9662  -19.8612 H   0  0  0  0  0  0  0  0  0  0  0  0
  -20.2235   -2.6456  -20.9980 H   0  0  0  0  0  0  0  0  0  0  0  0
  -17.9677   -6.8532  -35.1913 H   0  0  0  0  0  0  0  0  0  0  0  0
  -18.7431   -6.7937  -36.8148 H   0  0  0  0  0  0  0  0  0  0  0  0
  -19.0958   -5.5119  -35.6011 H   0  0  0  0  0  0  0  0  0  0  0  0
  -18.9550   -9.1892  -34.9484 H   0  0  0  0  0  0  0  0  0  0  0  0
  -20.7280   -9.3731  -35.2000 H   0  0  0  0  0  0  0  0  0  0  0  0
  -19.6594   -8.9624  -36.5892 H   0  0  0  0  0  0  0  0  0  0  0  0
  -19.6697   -5.0367  -33.8710 H   0  0  0  0  0  0  0  0  0  0  0  0
  -21.3880   -5.2985  -34.2200 H   0  0  0  0  0  0  0  0  0  0  0  0
  -21.1879   -7.7000  -33.5413 H   0  0  0  0  0  0  0  0  0  0  0  0
  -19.4417   -7.4717  -33.2298 H   0  0  0  0  0  0  0  0  0  0  0  0
  -25.2051   -6.7272  -23.1571 H   0  0  0  0  0  0  0  0  0  0  0  0
  -25.5974   -2.8259  -22.0442 H   0  0  0  0  0  0  0  0  0  0  0  0
  -20.4360   -5.9726  -31.5094 H   0  0  0  0  0  0  0  0  0  0  0  0
  -20.8428   -7.0884  -35.7790 H   0  0  0  0  0  0  0  0  0  0  0  0
  1  3  2  0  0  0  0
  1  4  1  0  0  0  0
  2 25  1  0  0  0  0
  2 26  2  0  0  0  0
  3  6  1  0  0  0  0
  3  8  1  0  0  0  0
  4  5  2  0  0  0  0
  4 13  1  0  0  0  0
  5  7  1  0  0  0  0
  5 31  1  0  0  0  0
  6  7  2  0  0  0  0
  6 37  1  0  0  0  0
  7 39  1  0  0  0  0
  8 27  2  0  0  0  0
  8 28  1  0  0  0  0
  9 25  2  0  0  0  0
  9 28  1  0  0  0  0
  9 32  1  0  0  0  0
 10 18  1  0  0  0  0
 10 29  1  0  0  0  0
 10 34  2  0  0  0  0
 11 18  1  0  0  0  0
 11 30  1  0  0  0  0
 11 35  2  0  0  0  0
 12 29  1  0  0  0  0
 12 30  1  0  0  0  0
 12 36  2  0  0  0  0
 13 18  1  0  0  0  0
 14 16  1  0  0  0  0
 14 31  1  0  0  0  0
 15 17  1  0  0  0  0
 15 18  1  0  0  0  0
 15 31  1  0  0  0  0
 16 19  1  0  0  0  0
 16 38  1  0  0  0  0
 17 20  1  0  0  0  0
 17 38  1  0  0  0  0
 21 33  1  0  0  0  0
 22 33  1  0  0  0  0
 23 24  1  0  0  0  0
 23 32  1  0  0  0  0
 24 33  1  0  0  0  0
 26 28  1  0  0  0  0
 27 37  1  0  0  0  0
  1 40  1  0  0  0  0
  2 41  1  0  0  0  0
 13 42  1  0  0  0  0
 13 43  1  0  0  0  0
 14 44  1  0  0  0  0
 14 45  1  0  0  0  0
 15 46  1  0  0  0  0
 16 47  1  0  0  0  0
 17 48  1  0  0  0  0
 19 49  1  0  0  0  0
 19 50  1  0  0  0  0
 19 51  1  0  0  0  0
 20 52  1  0  0  0  0
 20 53  1  0  0  0  0
 20 54  1  0  0  0  0
 21 55  1  0  0  0  0
 21 56  1  0  0  0  0
 21 57  1  0  0  0  0
 22 58  1  0  0  0  0
 22 59  1  0  0  0  0
 22 60  1  0  0  0  0
 23 61  1  0  0  0  0
 23 62  1  0  0  0  0
 24 63  1  0  0  0  0
 24 64  1  0  0  0  0
 29 65  1  0  0  0  0
 30 66  1  0  0  0  0
 32 67  1  0  0  0  0
 33 68  1  0  0  0  0
M  CHG  1  33   1
M  END
> <SMILES>
C[C@@H]1CN2[C@H]([C@H](C)O1)C1(Cc3cc4c(noc4c(c32)F)-n2ncnc2NCCN(C)C)C(=O)NC(=O)NC1=O

> <FORMATTED_ID>
H3D-006616

> <MOLFORMULA>
C24H28FN9O5

> <Exact Mass>
541.22

> <XLogP>
1.01

> <TPSA_NOPS>
160

> <s_m_source_file>
ligprep_h3d.sdf

> <i_m_source_file_index>
1054

> <i_lp_mmshare_version>
55123

> <i_f3d_flags>
0

> <s_epik_input>
Tz1DMVtOSF1DKD1PKVtOSF1DKD1PKUMxMltDQEBIXTNOKFtDSDJdW0NAQEhdKFtDSDNdKU9bQ0BIXTNbQ0gzXSljNGMoW0NIMl0yKVtjSF1jNWMoYzRGKW9uYzUtbjZuW2NIXW5jNltOSF1bQ0gyXVtDSDJdTihbQ0gzXSlbQ0gzXQ==

> <s_epik_cmdline>
J2VwaWtfcHl0aG9uJywgJy1waHQnLCAnMC41JywgJy1waCcsICc3LjUnLCAnLXRuJywgJzgnLCAnLW1hJywgJzUwMCcsICctaW1hZScsICc8aW5maWxlLm1hZT4nLCAnLW9tYWUnLCAnPG91dGZpbGUubWFlPic=

> <r_lp_tautomer_probability>
1

> <r_epik_Ionization_Penalty>
0.391845

> <r_epik_Ionization_Penalty_Charging>
0.011743

> <r_epik_Ionization_Penalty_Neutral>
0.380102

> <r_epik_State_Penalty>
0.366447

> <r_epik_Charging_Adjusted_Penalty>
0.37819

> <i_epik_Tot_Q>
1

> <i_epik_Tot_abs_Q>
1

> <s_lp_Force_Field>
S-OPLS

> <r_lp_Energy>
65.1501

> <b_lp_Chiralities_Consistent>
1

> <s_lp_Variant>
ligprep_h3d.sdf:1054-1

> <ROCS_ShapeQuery>
_7L13

> <ROCS_TanimotoCombo>
0.739 

> <ROCS_ShapeTanimoto>
0.576 

> <ROCS_ColorTanimoto>
0.164 

> <ROCS_RefTversky>
0.767 

> <ROCS_RefColorTversky>
0.402 

> <ROCS_RefTverskyCombo>
1.170 

> <ROCS_FitTversky>
0.698 

> <ROCS_FitColorTversky>
0.216 

> <ROCS_FitTverskyCombo>
0.914 

> <ROCS_ColorScore>
-3.801

> <ROCS_Overlap>
1281.546

> <ROCS_Rank>
577                 

$$$$
ligprep_h3d.sdf:5439_130
  -OEChem-08212117123D

 67 72  0     0  0  0  0  0  0999 V2000
  -20.1776   -6.8574  -33.1804 C   0  0  0  0  0  0  0  0  0  0  0  0
  -18.5367   -5.4270  -34.2287 C   0  0  0  0  0  0  0  0  0  0  0  0
  -20.5265   -7.3721  -34.4289 C   0  0  0  0  0  0  0  0  0  0  0  0
  -18.8856   -5.9418  -35.4772 C   0  0  0  0  0  0  0  0  0  0  0  0
  -26.0053   -5.9670  -22.2947 C   0  0  0  0  0  0  0  0  0  0  0  0
  -23.9080   -3.6054  -24.0274 C   0  0  0  0  0  0  0  0  0  0  0  0
  -19.7662   -4.3934  -29.0919 C   0  0  0  0  0  0  0  0  0  0  0  0
  -22.5699   -4.1844  -29.2685 C   0  0  0  0  0  0  0  0  0  0  0  0
  -25.9494   -5.4894  -20.9947 C   0  0  0  0  0  0  0  0  0  0  0  0
  -24.5410   -3.7033  -21.5068 C   0  0  0  0  0  0  0  0  0  0  0  0
  -24.5295   -4.0999  -22.8477 C   0  0  0  0  0  0  0  0  0  0  0  0
  -20.5554   -4.4405  -27.9474 C   0  0  0  0  0  0  0  0  0  0  0  0
  -19.1827   -5.8847  -33.0803 C   0  0  0  0  0  0  0  0  0  0  0  0
  -25.2653   -5.2282  -23.2132 C   0  0  0  0  0  0  0  0  0  0  0  0
  -21.9457   -4.3364  -28.0374 C   0  0  0  0  0  0  0  0  0  0  0  0
  -20.3853   -4.2410  -30.3323 C   0  0  0  0  0  0  0  0  0  0  0  0
  -21.7784   -4.1373  -30.4192 C   0  0  0  0  0  0  0  0  0  0  0  0
  -19.8805   -6.9144  -35.5773 C   0  0  0  0  0  0  0  0  0  0  0  0
  -24.2722   -4.4286  -25.0683 C   0  0  0  0  0  0  0  0  0  0  0  0
  -23.8874   -4.3334  -26.4833 C   0  0  0  0  0  0  0  0  0  0  0  0
  -19.1915   -3.4220  -26.0873 C   0  0  0  0  0  0  0  0  0  0  0  0
  -19.3516   -5.9334  -26.3093 C   0  0  0  0  0  0  0  0  0  0  0  0
  -21.4495   -4.5777  -25.7587 C   0  0  0  0  0  0  0  0  0  0  0  0
  -18.6351   -3.5909  -24.6779 C   0  0  0  0  0  0  0  0  0  0  0  0
  -18.7951   -6.0847  -24.8980 C   0  0  0  0  0  0  0  0  0  0  0  0
  -20.0913   -4.5974  -26.5161 C   0  0  0  0  0  0  0  0  0  0  0  0
  -17.2298   -5.0694  -23.2460 C   0  0  0  0  0  0  0  0  0  0  0  0
  -22.5785   -2.6545  -32.0976 C   0  0  0  0  0  0  0  0  0  0  0  0
  -18.8063   -5.3311  -31.7374 C   0  0  0  0  0  0  0  0  0  0  0  0
  -25.2523   -4.4027  -20.5901 N   0  0  0  0  0  0  0  0  0  0  0  0
  -25.0912   -5.4048  -24.5670 N   0  0  0  0  0  0  0  0  0  0  0  0
  -22.5278   -4.4094  -26.7575 N   0  0  0  0  0  0  0  0  0  0  0  0
  -17.9056   -4.9081  -24.5801 N   0  3  0  0  0  0  0  0  0  0  0  0
  -24.8082   -4.1944  -27.2831 O   0  0  0  0  0  0  0  0  0  0  0  0
  -22.3803   -3.9878  -31.6341 O   0  0  0  0  0  0  0  0  0  0  0  0
  -19.6192   -4.1932  -31.4586 O   0  0  0  0  0  0  0  0  0  0  0  0
  -20.2136   -7.4106  -36.7761 F   0  0  0  0  0  0  0  0  0  0  0  0
  -20.6870   -7.2197  -32.2914 H   0  0  0  0  0  0  0  0  0  0  0  0
  -17.7602   -4.6696  -34.1603 H   0  0  0  0  0  0  0  0  0  0  0  0
  -21.3004   -8.1298  -34.5070 H   0  0  0  0  0  0  0  0  0  0  0  0
  -18.3833   -5.5854  -36.3716 H   0  0  0  0  0  0  0  0  0  0  0  0
  -26.5772   -6.8430  -22.5713 H   0  0  0  0  0  0  0  0  0  0  0  0
  -23.2640   -2.7391  -24.1038 H   0  0  0  0  0  0  0  0  0  0  0  0
  -18.6855   -4.4730  -29.0244 H   0  0  0  0  0  0  0  0  0  0  0  0
  -23.6454   -4.1013  -29.3682 H   0  0  0  0  0  0  0  0  0  0  0  0
  -26.4933   -5.9981  -20.2041 H   0  0  0  0  0  0  0  0  0  0  0  0
  -23.9977   -2.8414  -21.1382 H   0  0  0  0  0  0  0  0  0  0  0  0
  -19.7433   -2.4747  -26.1456 H   0  0  0  0  0  0  0  0  0  0  0  0
  -18.3476   -3.3199  -26.7830 H   0  0  0  0  0  0  0  0  0  0  0  0
  -18.5194   -6.0184  -27.0212 H   0  0  0  0  0  0  0  0  0  0  0  0
  -20.0169   -6.7791  -26.5268 H   0  0  0  0  0  0  0  0  0  0  0  0
  -21.6426   -5.5081  -25.2118 H   0  0  0  0  0  0  0  0  0  0  0  0
  -21.5230   -3.7505  -25.0431 H   0  0  0  0  0  0  0  0  0  0  0  0
  -17.9119   -2.7989  -24.4565 H   0  0  0  0  0  0  0  0  0  0  0  0
  -19.4201   -3.5869  -23.9144 H   0  0  0  0  0  0  0  0  0  0  0  0
  -19.5835   -6.1213  -24.1389 H   0  0  0  0  0  0  0  0  0  0  0  0
  -18.1810   -6.9885  -24.8253 H   0  0  0  0  0  0  0  0  0  0  0  0
  -18.0058   -5.0873  -22.4785 H   0  0  0  0  0  0  0  0  0  0  0  0
  -16.6739   -6.0087  -23.2643 H   0  0  0  0  0  0  0  0  0  0  0  0
  -16.5593   -4.2192  -23.1062 H   0  0  0  0  0  0  0  0  0  0  0  0
  -23.0663   -2.6765  -33.0752 H   0  0  0  0  0  0  0  0  0  0  0  0
  -21.6138   -2.1462  -32.1712 H   0  0  0  0  0  0  0  0  0  0  0  0
  -23.2154   -2.1222  -31.3871 H   0  0  0  0  0  0  0  0  0  0  0  0
  -18.9552   -6.0779  -30.9500 H   0  0  0  0  0  0  0  0  0  0  0  0
  -17.7527   -5.0322  -31.7227 H   0  0  0  0  0  0  0  0  0  0  0  0
  -25.5101   -6.1483  -25.1090 H   0  0  0  0  0  0  0  0  0  0  0  0
  -17.1555   -4.8940  -25.2847 H   0  0  0  0  0  0  0  0  0  0  0  0
  1  3  1  0  0  0  0
  1 13  2  0  0  0  0
  2  4  2  0  0  0  0
  2 13  1  0  0  0  0
  3 18  2  0  0  0  0
  4 18  1  0  0  0  0
  5  9  1  0  0  0  0
  5 14  2  0  0  0  0
  6 11  1  0  0  0  0
  6 19  2  0  0  0  0
  7 12  1  0  0  0  0
  7 16  2  0  0  0  0
  8 15  1  0  0  0  0
  8 17  2  0  0  0  0
  9 30  2  0  0  0  0
 10 11  2  0  0  0  0
 10 30  1  0  0  0  0
 11 14  1  0  0  0  0
 12 15  2  0  0  0  0
 12 26  1  0  0  0  0
 13 29  1  0  0  0  0
 14 31  1  0  0  0  0
 15 32  1  0  0  0  0
 16 17  1  0  0  0  0
 16 36  1  0  0  0  0
 17 35  1  0  0  0  0
 18 37  1  0  0  0  0
 19 20  1  0  0  0  0
 19 31  1  0  0  0  0
 20 32  1  0  0  0  0
 20 34  2  0  0  0  0
 21 24  1  0  0  0  0
 21 26  1  0  0  0  0
 22 25  1  0  0  0  0
 22 26  1  0  0  0  0
 23 26  1  0  0  0  0
 23 32  1  0  0  0  0
 24 33  1  0  0  0  0
 25 33  1  0  0  0  0
 27 33  1  0  0  0  0
 28 35  1  0  0  0  0
 29 36  1  0  0  0  0
  1 38  1  0  0  0  0
  2 39  1  0  0  0  0
  3 40  1  0  0  0  0
  4 41  1  0  0  0  0
  5 42  1  0  0  0  0
  6 43  1  0  0  0  0
  7 44  1  0  0  0  0
  8 45  1  0  0  0  0
  9 46  1  0  0  0  0
 10 47  1  0  0  0  0
 21 48  1  0  0  0  0
 21 49  1  0  0  0  0
 22 50  1  0  0  0  0
 22 51  1  0  0  0  0
 23 52  1  0  0  0  0
 23 53  1  0  0  0  0
 24 54  1  0  0  0  0
 24 55  1  0  0  0  0
 25 56  1  0  0  0  0
 25 57  1  0  0  0  0
 27 58  1  0  0  0  0
 27 59  1  0  0  0  0
 27 60  1  0  0  0  0
 28 61  1  0  0  0  0
 28 62  1  0  0  0  0
 28 63  1  0  0  0  0
 29 64  1  0  0  0  0
 29 65  1  0  0  0  0
 31 66  1  0  0  0  0
 33 67  1  0  0  0  0
M  CHG  1  33   1
M  END
> <SMILES>
COc1cc2c(cc1OCc1ccc(cc1)F)C1(CCN(C)CC1)CN2C(=O)c1cc2cnccc2[nH]1

> <FORMATTED_ID>
H3D-016045

> <MOLFORMULA>
C29H29FN4O3

> <Exact Mass>
500.22

> <XLogP>
5.29

> <TPSA_NOPS>
70.7

> <s_m_source_file>
ligprep_h3d.sdf

> <i_m_source_file_index>
5439

> <i_lp_mmshare_version>
55123

> <i_f3d_flags>
0

> <s_epik_input>
W2NIXTFbY0hdYyhGKVtjSF1bY0hdYzFbQ0gyXU9jKFtjSF0yKWMoT1tDSDNdKVtjSF1jKGMyQzM0W0NIMl1bQ0gyXU4oW0NIM10pW0NIMl1bQ0gyXTMpTihbQ0gyXTQpQyg9TyljKFtjSF01KVtuSF1jKGM1NilbY0hdW2NIXW5bY0hdNg==

> <s_epik_cmdline>
J2VwaWtfcHl0aG9uJywgJy1waHQnLCAnMC41JywgJy1waCcsICc3LjUnLCAnLXRuJywgJzgnLCAnLW1hJywgJzUwMCcsICctaW1hZScsICc8aW5maWxlLm1hZT4nLCAnLW9tYWUnLCAnPG91dGZpbGUubWFlPic=

> <r_lp_tautomer_probability>
0.999931

> <r_epik_Ionization_Penalty>
0.65074

> <r_epik_Ionization_Penalty_Charging>
0.012163

> <r_epik_Ionization_Penalty_Neutral>
0.638577

> <r_epik_State_Penalty>
0.656056

> <r_epik_Charging_Adjusted_Penalty>
0.668219

> <i_epik_Tot_Q>
1

> <i_epik_Tot_abs_Q>
1

> <s_lp_Force_Field>
S-OPLS

> <r_lp_Energy>
79.2549

> <b_lp_Chiralities_Consistent>
1

> <s_lp_Variant>
ligprep_h3d.sdf:5439-2

> <ROCS_ShapeQuery>
_7L13

> <ROCS_TanimotoCombo>
0.706 

> <ROCS_ShapeTanimoto>
0.606 

> <ROCS_ColorTanimoto>
0.100 

> <ROCS_RefTversky>
0.767 

> <ROCS_RefColorTversky>
0.218 

> <ROCS_RefTverskyCombo>
0.985 

> <ROCS_FitTversky>
0.742 

> <ROCS_FitColorTversky>
0.156 

> <ROCS_FitTverskyCombo>
0.898 

> <ROCS_ColorScore>
-2.006

> <ROCS_Overlap>
1276.453

> <ROCS_Rank>
578                 

$$$$
ligprep_h3d.sdf:1047_984
  -OEChem-08212117123D

 60 65  0     1  0  0  0  0  0999 V2000
  -21.0118   -5.1797  -29.4947 C   0  0  0  0  0  0  0  0  0  0  0  0
  -21.7599   -4.3996  -30.3790 C   0  0  0  0  0  0  0  0  0  0  0  0
  -21.1203   -4.9276  -28.1059 C   0  0  0  0  0  0  0  0  0  0  0  0
  -21.9875   -3.9424  -27.5771 C   0  0  0  0  0  0  0  0  0  0  0  0
  -22.5769   -3.4195  -29.8597 C   0  0  0  0  0  0  0  0  0  0  0  0
  -22.7195   -3.1556  -28.4973 C   0  0  0  0  0  0  0  0  0  0  0  0
  -21.9497   -4.2925  -31.7693 C   0  0  0  0  0  0  0  0  0  0  0  0
  -18.9020   -3.8826  -26.2346 C   0  0  0  0  0  0  0  0  0  0  0  0
  -19.2840   -6.0787  -24.9966 C   0  0  0  0  0  0  0  0  0  0  0  0
  -17.0859   -5.2648  -25.8198 C   0  0  0  0  0  0  0  0  0  0  0  0
  -20.4175   -6.0993  -32.4369 C   0  0  0  0  0  0  0  0  0  0  0  0
  -20.2890   -5.7719  -27.1776 C   0  0  0  0  0  0  0  0  0  0  0  0
  -23.0327   -2.7714  -25.6485 C   0  0  0  0  0  0  0  0  0  0  0  0
  -21.0455   -6.3384  -34.6137 C   0  0  0  0  0  0  0  0  0  0  0  0
  -21.2169   -4.4727  -25.2298 C   0  0  2  0  0  0  0  0  0  0  0  0
  -21.5160   -4.9768  -34.1409 C   0  0  2  0  0  0  0  0  0  0  0  0
  -23.4093   -3.0747  -24.1954 C   0  0  1  0  0  0  0  0  0  0  0  0
  -21.0412   -3.5343  -23.9998 C   0  0  2  0  0  0  0  0  0  0  0  0
  -19.9025   -5.0094  -25.8862 C   0  0  2  0  0  0  0  0  0  0  0  0
  -24.4159   -4.2174  -24.0757 C   0  0  0  0  0  0  0  0  0  0  0  0
  -20.0909   -4.0172  -22.9114 C   0  0  0  0  0  0  0  0  0  0  0  0
  -20.6812   -3.8480  -34.7418 C   0  0  0  0  0  0  0  0  0  0  0  0
  -19.2148   -4.2282  -34.8338 C   0  0  0  0  0  0  0  0  0  0  0  0
  -22.8123   -3.3234  -32.0900 N   0  0  0  0  0  0  0  0  0  0  0  0
  -17.6471   -4.2574  -26.4897 N   0  5  0  0  0  0  0  0  0  0  0  0
  -17.9045   -6.0924  -25.0534 N   0  0  0  0  0  0  0  0  0  0  0  0
  -22.0932   -3.7578  -26.1963 N   0  0  3  0  0  0  0  0  0  0  0  0
  -21.3256   -5.0818  -32.7152 N   0  0  0  0  0  0  0  0  0  0  0  0
  -19.2881   -2.7227  -26.3778 O   0  0  0  0  0  0  0  0  0  0  0  0
  -19.9354   -6.8988  -24.3536 O   0  0  0  0  0  0  0  0  0  0  0  0
  -15.8767   -5.5072  -25.8641 O   0  0  0  0  0  0  0  0  0  0  0  0
  -19.9213   -6.3901  -31.3563 O   0  0  0  0  0  0  0  0  0  0  0  0
  -23.2066   -2.7705  -30.8771 O   0  0  0  0  0  0  0  0  0  0  0  0
  -20.1272   -6.7706  -33.6033 O   0  0  0  0  0  0  0  0  0  0  0  0
  -22.3029   -3.3551  -23.3428 O   0  0  0  0  0  0  0  0  0  0  0  0
  -19.0953   -5.3683  -35.6732 O   0  0  0  0  0  0  0  0  0  0  0  0
  -23.4643   -2.1039  -28.1359 F   0  0  0  0  0  0  0  0  0  0  0  0
  -20.3520   -5.9582  -29.8667 H   0  0  0  0  0  0  0  0  0  0  0  0
  -20.8696   -6.6734  -26.9389 H   0  0  0  0  0  0  0  0  0  0  0  0
  -19.3849   -6.1141  -27.6985 H   0  0  0  0  0  0  0  0  0  0  0  0
  -23.9444   -2.7982  -26.2804 H   0  0  0  0  0  0  0  0  0  0  0  0
  -22.6993   -1.7229  -25.6933 H   0  0  0  0  0  0  0  0  0  0  0  0
  -21.8644   -7.0644  -34.6620 H   0  0  0  0  0  0  0  0  0  0  0  0
  -20.5344   -6.3110  -35.5806 H   0  0  0  0  0  0  0  0  0  0  0  0
  -21.8095   -5.3390  -24.8938 H   0  0  0  0  0  0  0  0  0  0  0  0
  -22.5750   -4.8208  -34.3745 H   0  0  0  0  0  0  0  0  0  0  0  0
  -23.9393   -2.1565  -23.7625 H   0  0  0  0  0  0  0  0  0  0  0  0
  -20.6906   -2.5344  -24.3133 H   0  0  0  0  0  0  0  0  0  0  0  0
  -23.9844   -5.1374  -24.4702 H   0  0  0  0  0  0  0  0  0  0  0  0
  -25.3183   -3.9800  -24.6393 H   0  0  0  0  0  0  0  0  0  0  0  0
  -24.6824   -4.3717  -23.0299 H   0  0  0  0  0  0  0  0  0  0  0  0
  -20.3927   -5.0055  -22.5641 H   0  0  0  0  0  0  0  0  0  0  0  0
  -20.1071   -3.3262  -22.0685 H   0  0  0  0  0  0  0  0  0  0  0  0
  -19.0747   -4.0748  -23.3021 H   0  0  0  0  0  0  0  0  0  0  0  0
  -20.7968   -2.9470  -34.1329 H   0  0  0  0  0  0  0  0  0  0  0  0
  -21.0665   -3.6000  -35.7347 H   0  0  0  0  0  0  0  0  0  0  0  0
  -18.6234   -3.4143  -35.2653 H   0  0  0  0  0  0  0  0  0  0  0  0
  -18.8104   -4.4778  -33.8476 H   0  0  0  0  0  0  0  0  0  0  0  0
  -17.4349   -6.7810  -24.4731 H   0  0  0  0  0  0  0  0  0  0  0  0
  -18.1506   -5.5888  -35.7142 H   0  0  0  0  0  0  0  0  0  0  0  0
  1  2  2  0  0  0  0
  1  3  1  0  0  0  0
  2  5  1  0  0  0  0
  2  7  1  0  0  0  0
  3  4  2  0  0  0  0
  3 12  1  0  0  0  0
  4  6  1  0  0  0  0
  4 27  1  0  0  0  0
  5  6  2  0  0  0  0
  5 33  1  0  0  0  0
  6 37  1  0  0  0  0
  7 24  2  0  0  0  0
  7 28  1  0  0  0  0
  8 19  1  0  0  0  0
  8 25  1  0  0  0  0
  8 29  2  0  0  0  0
  9 19  1  0  0  0  0
  9 26  1  0  0  0  0
  9 30  2  0  0  0  0
 10 25  1  0  0  0  0
 10 26  1  0  0  0  0
 10 31  2  0  0  0  0
 11 28  1  0  0  0  0
 11 32  2  0  0  0  0
 11 34  1  0  0  0  0
 12 19  1  0  0  0  0
 13 17  1  0  0  0  0
 13 27  1  0  0  0  0
 14 16  1  0  0  0  0
 14 34  1  0  0  0  0
 15 18  1  0  0  0  0
 15 19  1  0  0  0  0
 15 27  1  0  0  0  0
 16 22  1  0  0  0  0
 16 28  1  0  0  0  0
 17 20  1  0  0  0  0
 17 35  1  0  0  0  0
 18 21  1  0  0  0  0
 18 35  1  0  0  0  0
 22 23  1  0  0  0  0
 23 36  1  0  0  0  0
 24 33  1  0  0  0  0
  1 38  1  0  0  0  0
 12 39  1  0  0  0  0
 12 40  1  0  0  0  0
 13 41  1  0  0  0  0
 13 42  1  0  0  0  0
 14 43  1  0  0  0  0
 14 44  1  0  0  0  0
 15 45  1  0  0  0  0
 16 46  1  0  0  0  0
 17 47  1  0  0  0  0
 18 48  1  0  0  0  0
 20 49  1  0  0  0  0
 20 50  1  0  0  0  0
 20 51  1  0  0  0  0
 21 52  1  0  0  0  0
 21 53  1  0  0  0  0
 21 54  1  0  0  0  0
 22 55  1  0  0  0  0
 22 56  1  0  0  0  0
 23 57  1  0  0  0  0
 23 58  1  0  0  0  0
 26 59  1  0  0  0  0
 36 60  1  0  0  0  0
M  CHG  1  25  -1
M  END
> <SMILES>
C[C@@H]1CN2[C@H]([C@H](C)O1)C1(Cc3cc4c(noc4c(c32)F)N2[C@@H](CCO)COC2=O)C(=O)NC(=O)NC1=O

> <FORMATTED_ID>
H3D-006609

> <MOLFORMULA>
C23H24FN5O8

> <Exact Mass>
517.16

> <XLogP>
-0.04

> <TPSA_NOPS>
163.8

> <s_m_source_file>
ligprep_h3d.sdf

> <i_m_source_file_index>
1047

> <i_lp_mmshare_version>
55123

> <i_f3d_flags>
0

> <s_epik_input>
Tz1DMVtOSF1DKD1PKVtOSF1DKD1PKUMxMltDQEBIXTNOKFtDSDJdW0NAQEhdKFtDSDNdKU9bQ0BIXTNbQ0gzXSljNGMoW0NIMl0yKVtjSF1jNWMoYzRGKW9uYzVONltDQEBIXShbQ0gyXVtDSDJdW09IXSlbQ0gyXU9DNj1P

> <s_epik_cmdline>
J2VwaWtfcHl0aG9uJywgJy1waHQnLCAnMC41JywgJy1waCcsICc3LjUnLCAnLXRuJywgJzgnLCAnLW1hJywgJzUwMCcsICctaW1hZScsICc8aW5maWxlLm1hZT4nLCAnLW9tYWUnLCAnPG91dGZpbGUubWFlPic=

> <r_lp_tautomer_probability>
1

> <r_epik_Ionization_Penalty>
0.455388

> <r_epik_Ionization_Penalty_Charging>
0.455373

> <r_epik_Ionization_Penalty_Neutral>
1.46685e-05

> <r_epik_State_Penalty>
0.458483

> <r_epik_Charging_Adjusted_Penalty>
0.913857

> <i_epik_Tot_Q>
-1

> <i_epik_Tot_abs_Q>
1

> <s_epik_Chemistry_Notes>
This compound has an ester and may undergo hydrolysis at high or low pH.

> <s_lp_Force_Field>
S-OPLS

> <r_lp_Energy>
46.0357

> <b_lp_Chiralities_Consistent>
1

> <s_lp_Variant>
ligprep_h3d.sdf:1047-2

> <ROCS_ShapeQuery>
_7L13

> <ROCS_TanimotoCombo>
0.716 

> <ROCS_ShapeTanimoto>
0.596 

> <ROCS_ColorTanimoto>
0.119 

> <ROCS_RefTversky>
0.767 

> <ROCS_RefColorTversky>
0.295 

> <ROCS_RefTverskyCombo>
1.062 

> <ROCS_FitTversky>
0.728 

> <ROCS_FitColorTversky>
0.167 

> <ROCS_FitTverskyCombo>
0.895 

> <ROCS_ColorScore>
-2.776

> <ROCS_Overlap>
1277.847

> <ROCS_Rank>
579                 

$$$$
ligprep_h3d.sdf:1756_141
  -OEChem-08212117123D

 56 60  0     0  0  0  0  0  0999 V2000
  -19.5751   -4.4560  -30.0411 C   0  0  0  0  0  0  0  0  0  0  0  0
  -25.4566   -5.6157  -24.0599 C   0  0  0  0  0  0  0  0  0  0  0  0
  -24.6331   -3.6007  -23.0116 C   0  0  0  0  0  0  0  0  0  0  0  0
  -19.3360   -4.5515  -28.6696 C   0  0  0  0  0  0  0  0  0  0  0  0
  -24.4269   -5.5482  -24.9984 C   0  0  0  0  0  0  0  0  0  0  0  0
  -23.6034   -3.5332  -23.9502 C   0  0  0  0  0  0  0  0  0  0  0  0
  -21.9405   -4.2583  -29.6108 C   0  0  0  0  0  0  0  0  0  0  0  0
  -20.2941   -4.8370  -32.8524 C   0  0  0  0  0  0  0  0  0  0  0  0
  -22.2023   -3.4845  -32.4207 C   0  0  0  0  0  0  0  0  0  0  0  0
  -21.6604   -3.9764  -34.5985 C   0  0  0  0  0  0  0  0  0  0  0  0
  -20.8774   -4.3082  -30.5111 C   0  0  0  0  0  0  0  0  0  0  0  0
  -21.1265   -4.2087  -31.9328 C   0  0  0  0  0  0  0  0  0  0  0  0
  -21.6938   -4.3549  -28.2357 C   0  0  0  0  0  0  0  0  0  0  0  0
  -20.5591   -4.7235  -34.2126 C   0  0  0  0  0  0  0  0  0  0  0  0
  -25.5597   -4.6419  -23.0665 C   0  0  0  0  0  0  0  0  0  0  0  0
  -20.3947   -4.5020  -27.7545 C   0  0  0  0  0  0  0  0  0  0  0  0
  -23.5003   -4.5070  -24.9436 C   0  0  0  0  0  0  0  0  0  0  0  0
  -22.8088   -4.3321  -27.2694 C   0  0  0  0  0  0  0  0  0  0  0  0
  -21.0779   -4.5252  -25.5132 C   0  0  0  0  0  0  0  0  0  0  0  0
  -19.6988   -5.3748  -35.2094 C   0  0  0  0  0  0  0  0  0  0  0  0
  -20.2245   -7.6525  -34.1922 C   0  0  0  0  0  0  0  0  0  0  0  0
  -18.6565   -7.4414  -36.0791 C   0  0  0  0  0  0  0  0  0  0  0  0
  -20.8366   -8.8502  -34.9089 C   0  0  0  0  0  0  0  0  0  0  0  0
  -19.3421   -8.6394  -36.7195 C   0  0  0  0  0  0  0  0  0  0  0  0
  -26.6606   -4.7140  -22.0630 C   0  0  0  0  0  0  0  0  0  0  0  0
  -22.4917   -3.3517  -33.7346 N   0  0  0  0  0  0  0  0  0  0  0  0
  -20.1071   -4.5763  -26.3892 N   0  0  0  0  0  0  0  0  0  0  0  0
  -22.4366   -4.4373  -25.9126 N   0  0  0  0  0  0  0  0  0  0  0  0
  -19.5681   -6.7637  -35.1587 N   0  0  0  0  0  0  0  0  0  0  0  0
  -20.7307   -4.5036  -24.1799 N   0  0  0  0  0  0  0  0  0  0  0  0
  -23.9560   -4.2818  -27.7071 O   0  0  0  0  0  0  0  0  0  0  0  0
  -19.1470   -4.6332  -36.0210 O   0  0  0  0  0  0  0  0  0  0  0  0
  -19.8535   -9.5122  -35.7085 O   0  0  0  0  0  0  0  0  0  0  0  0
  -27.4913   -5.7843  -22.2377 F   0  0  0  0  0  0  0  0  0  0  0  0
  -26.2199   -4.8122  -20.7739 F   0  0  0  0  0  0  0  0  0  0  0  0
  -27.4693   -3.6148  -22.0907 F   0  0  0  0  0  0  0  0  0  0  0  0
  -18.7339   -4.4968  -30.7290 H   0  0  0  0  0  0  0  0  0  0  0  0
  -26.1754   -6.4292  -24.1115 H   0  0  0  0  0  0  0  0  0  0  0  0
  -24.7063   -2.8373  -22.2415 H   0  0  0  0  0  0  0  0  0  0  0  0
  -18.3132   -4.6615  -28.3166 H   0  0  0  0  0  0  0  0  0  0  0  0
  -24.3560   -6.3128  -25.7680 H   0  0  0  0  0  0  0  0  0  0  0  0
  -22.8873   -2.7169  -23.8988 H   0  0  0  0  0  0  0  0  0  0  0  0
  -22.9570   -4.1477  -29.9821 H   0  0  0  0  0  0  0  0  0  0  0  0
  -19.4380   -5.4163  -32.5129 H   0  0  0  0  0  0  0  0  0  0  0  0
  -22.8885   -2.9687  -31.7551 H   0  0  0  0  0  0  0  0  0  0  0  0
  -21.9195   -3.8526  -35.6457 H   0  0  0  0  0  0  0  0  0  0  0  0
  -20.9888   -7.1310  -33.6112 H   0  0  0  0  0  0  0  0  0  0  0  0
  -19.4419   -7.9876  -33.5013 H   0  0  0  0  0  0  0  0  0  0  0  0
  -17.7992   -7.7704  -35.4800 H   0  0  0  0  0  0  0  0  0  0  0  0
  -18.2903   -6.7519  -36.8459 H   0  0  0  0  0  0  0  0  0  0  0  0
  -21.2071   -9.5727  -34.1749 H   0  0  0  0  0  0  0  0  0  0  0  0
  -21.6836   -8.5517  -35.5379 H   0  0  0  0  0  0  0  0  0  0  0  0
  -20.1548   -8.3304  -37.3877 H   0  0  0  0  0  0  0  0  0  0  0  0
  -18.6200   -9.2076  -37.3143 H   0  0  0  0  0  0  0  0  0  0  0  0
  -19.7673   -4.5277  -23.9506 H   0  0  0  0  0  0  0  0  0  0  0  0
  -21.4600   -4.4649  -23.5106 H   0  0  0  0  0  0  0  0  0  0  0  0
  1  4  1  0  0  0  0
  1 11  2  0  0  0  0
  2  5  1  0  0  0  0
  2 15  2  0  0  0  0
  3  6  2  0  0  0  0
  3 15  1  0  0  0  0
  4 16  2  0  0  0  0
  5 17  2  0  0  0  0
  6 17  1  0  0  0  0
  7 11  1  0  0  0  0
  7 13  2  0  0  0  0
  8 12  1  0  0  0  0
  8 14  2  0  0  0  0
  9 12  2  0  0  0  0
  9 26  1  0  0  0  0
 10 14  1  0  0  0  0
 10 26  2  0  0  0  0
 11 12  1  0  0  0  0
 13 16  1  0  0  0  0
 13 18  1  0  0  0  0
 14 20  1  0  0  0  0
 15 25  1  0  0  0  0
 16 27  1  0  0  0  0
 17 28  1  0  0  0  0
 18 28  1  0  0  0  0
 18 31  2  0  0  0  0
 19 27  2  0  0  0  0
 19 28  1  0  0  0  0
 19 30  1  0  0  0  0
 20 29  1  0  0  0  0
 20 32  2  0  0  0  0
 21 23  1  0  0  0  0
 21 29  1  0  0  0  0
 22 24  1  0  0  0  0
 22 29  1  0  0  0  0
 23 33  1  0  0  0  0
 24 33  1  0  0  0  0
 25 34  1  0  0  0  0
 25 35  1  0  0  0  0
 25 36  1  0  0  0  0
  1 37  1  0  0  0  0
  2 38  1  0  0  0  0
  3 39  1  0  0  0  0
  4 40  1  0  0  0  0
  5 41  1  0  0  0  0
  6 42  1  0  0  0  0
  7 43  1  0  0  0  0
  8 44  1  0  0  0  0
  9 45  1  0  0  0  0
 10 46  1  0  0  0  0
 21 47  1  0  0  0  0
 21 48  1  0  0  0  0
 22 49  1  0  0  0  0
 22 50  1  0  0  0  0
 23 51  1  0  0  0  0
 23 52  1  0  0  0  0
 24 53  1  0  0  0  0
 24 54  1  0  0  0  0
 30 55  1  0  0  0  0
 30 56  1  0  0  0  0
M  END
> <SMILES>
NC1=Nc2ccc(cc2C(=O)N1c1ccc(cc1)C(F)(F)F)-c1cncc(c1)C(=O)N1CCOCC1

> <FORMATTED_ID>
H3D-002804

> <MOLFORMULA>
C25H20F3N5O3

> <Exact Mass>
495.15

> <XLogP>
3.36

> <TPSA_NOPS>
101.1

> <s_m_source_file>
ligprep_h3d.sdf

> <i_m_source_file_index>
1756

> <i_lp_mmshare_version>
55123

> <i_f3d_flags>
0

> <s_epik_input>
W2NIXTFbY0hdYyhDKEYpKEYpRilbY0hdW2NIXWMxLW4oYyhuMilbTkgyXSljKD1PKWMoYzIzKVtjSF1jKFtjSF1bY0hdMyktYzRbY0hdbltjSF1jKFtjSF00KUMoPU8pTjVbQ0gyXVtDSDJdT1tDSDJdW0NIMl01

> <s_epik_cmdline>
J2VwaWtfcHl0aG9uJywgJy1waHQnLCAnMC41JywgJy1waCcsICc3LjUnLCAnLXRuJywgJzgnLCAnLW1hJywgJzUwMCcsICctaW1hZScsICc8aW5maWxlLm1hZT4nLCAnLW9tYWUnLCAnPG91dGZpbGUubWFlPic=

> <r_lp_tautomer_probability>
1

> <r_epik_Ionization_Penalty>
2.79691e-05

> <r_epik_Ionization_Penalty_Charging>
3.75638e-10

> <r_epik_Ionization_Penalty_Neutral>
2.79687e-05

> <r_epik_State_Penalty>
-0

> <r_epik_Charging_Adjusted_Penalty>
3.75638e-10

> <i_epik_Tot_Q>
0

> <i_epik_Tot_abs_Q>
0

> <s_lp_Force_Field>
S-OPLS

> <r_lp_Energy>
59.4478

> <b_lp_Chiralities_Consistent>
1

> <s_lp_Variant>
ligprep_h3d.sdf:1756-1

> <ROCS_ShapeQuery>
_7L13

> <ROCS_TanimotoCombo>
0.720 

> <ROCS_ShapeTanimoto>
0.614 

> <ROCS_ColorTanimoto>
0.106 

> <ROCS_RefTversky>
0.767 

> <ROCS_RefColorTversky>
0.220 

> <ROCS_RefTverskyCombo>
0.987 

> <ROCS_FitTversky>
0.755 

> <ROCS_FitColorTversky>
0.170 

> <ROCS_FitTverskyCombo>
0.925 

> <ROCS_ColorScore>
-2.012

> <ROCS_Overlap>
1275.037

> <ROCS_Rank>
580                 

$$$$
ligprep_h3d.sdf:589_1502
  -OEChem-08212117123D

 66 70  0     0  0  0  0  0  0999 V2000
  -20.9805   -3.9261  -32.4683 C   0  0  0  0  0  0  0  0  0  0  0  0
  -20.3073   -6.1607  -31.8436 C   0  0  0  0  0  0  0  0  0  0  0  0
  -20.4883   -4.1378  -33.7561 C   0  0  0  0  0  0  0  0  0  0  0  0
  -19.8151   -6.3725  -33.1314 C   0  0  0  0  0  0  0  0  0  0  0  0
  -16.7133   -4.7846  -26.7787 C   0  0  0  0  0  0  0  0  0  0  0  0
  -23.2483   -4.2054  -28.7112 C   0  0  0  0  0  0  0  0  0  0  0  0
  -20.7757   -4.4455  -25.3797 C   0  0  0  0  0  0  0  0  0  0  0  0
  -17.1450   -6.1193  -26.6606 C   0  0  0  0  0  0  0  0  0  0  0  0
  -21.0676   -4.5857  -27.7755 C   0  0  0  0  0  0  0  0  0  0  0  0
  -20.8900   -4.9375  -31.5120 C   0  0  0  0  0  0  0  0  0  0  0  0
  -21.4004   -4.7178  -30.1762 C   0  0  0  0  0  0  0  0  0  0  0  0
  -19.9056   -5.3610  -34.0877 C   0  0  0  0  0  0  0  0  0  0  0  0
  -22.7454   -4.4195  -29.9969 C   0  0  0  0  0  0  0  0  0  0  0  0
  -20.5615   -4.8011  -29.0686 C   0  0  0  0  0  0  0  0  0  0  0  0
  -22.4322   -4.2826  -27.5859 C   0  0  0  0  0  0  0  0  0  0  0  0
  -20.2456   -4.6634  -26.6432 C   0  0  0  0  0  0  0  0  0  0  0  0
  -22.1222   -4.1550  -25.2941 C   0  0  0  0  0  0  0  0  0  0  0  0
  -17.8726   -4.0481  -26.7868 C   0  0  0  0  0  0  0  0  0  0  0  0
  -22.7409   -3.9176  -24.0012 C   0  0  0  0  0  0  0  0  0  0  0  0
  -18.1905   -7.1666  -36.8619 C   0  0  0  0  0  0  0  0  0  0  0  0
  -20.3759   -7.7168  -36.0134 C   0  0  0  0  0  0  0  0  0  0  0  0
  -17.9504   -8.6505  -37.1252 C   0  0  0  0  0  0  0  0  0  0  0  0
  -20.0839   -9.1877  -36.2957 C   0  0  0  0  0  0  0  0  0  0  0  0
  -23.6901   -4.3166  -31.1521 C   0  0  0  0  0  0  0  0  0  0  0  0
  -19.1195   -5.1274  -29.3403 C   0  0  0  0  0  0  0  0  0  0  0  0
  -18.0832   -2.5906  -26.8877 C   0  0  0  0  0  0  0  0  0  0  0  0
  -24.8525   -4.0651  -22.6556 C   0  0  0  0  0  0  0  0  0  0  0  0
  -19.3755   -5.5888  -35.4738 C   0  0  0  0  0  0  0  0  0  0  0  0
  -18.4748   -6.2275  -26.5979 N   0  0  0  0  0  0  0  0  0  0  0  0
  -22.9495   -4.0707  -26.3610 N   0  0  0  0  0  0  0  0  0  0  0  0
  -18.8887   -4.9513  -26.6769 N   0  0  0  0  0  0  0  0  0  0  0  0
  -19.1212   -7.0038  -35.7364 N   0  0  0  0  0  0  0  0  0  0  0  0
  -24.0919   -4.2617  -23.8688 N   0  0  0  0  0  0  0  0  0  0  0  0
  -22.0880   -3.4106  -23.0707 O   0  0  0  0  0  0  0  0  0  0  0  0
  -19.1854   -9.3135  -37.3985 O   0  0  0  0  0  0  0  0  0  0  0  0
  -21.4314   -2.9669  -32.2251 H   0  0  0  0  0  0  0  0  0  0  0  0
  -20.2299   -6.9591  -31.1094 H   0  0  0  0  0  0  0  0  0  0  0  0
  -20.5620   -3.3438  -34.4945 H   0  0  0  0  0  0  0  0  0  0  0  0
  -19.3631   -7.3288  -33.3813 H   0  0  0  0  0  0  0  0  0  0  0  0
  -15.7021   -4.4109  -26.8478 H   0  0  0  0  0  0  0  0  0  0  0  0
  -24.3051   -3.9724  -28.5854 H   0  0  0  0  0  0  0  0  0  0  0  0
  -20.1607   -4.4997  -24.4856 H   0  0  0  0  0  0  0  0  0  0  0  0
  -16.5459   -7.0175  -26.6174 H   0  0  0  0  0  0  0  0  0  0  0  0
  -17.2323   -6.6853  -36.6353 H   0  0  0  0  0  0  0  0  0  0  0  0
  -18.6015   -6.6980  -37.7656 H   0  0  0  0  0  0  0  0  0  0  0  0
  -20.8826   -7.2724  -36.8801 H   0  0  0  0  0  0  0  0  0  0  0  0
  -21.0507   -7.6476  -35.1526 H   0  0  0  0  0  0  0  0  0  0  0  0
  -17.3053   -8.7730  -38.0012 H   0  0  0  0  0  0  0  0  0  0  0  0
  -17.4539   -9.1362  -36.2765 H   0  0  0  0  0  0  0  0  0  0  0  0
  -19.6598   -9.6926  -35.4189 H   0  0  0  0  0  0  0  0  0  0  0  0
  -21.0100   -9.7077  -36.5606 H   0  0  0  0  0  0  0  0  0  0  0  0
  -23.7165   -3.2880  -31.5277 H   0  0  0  0  0  0  0  0  0  0  0  0
  -23.3873   -4.9815  -31.9692 H   0  0  0  0  0  0  0  0  0  0  0  0
  -24.7048   -4.6099  -30.8586 H   0  0  0  0  0  0  0  0  0  0  0  0
  -18.9755   -6.2106  -29.3227 H   0  0  0  0  0  0  0  0  0  0  0  0
  -18.8130   -4.7418  -30.3165 H   0  0  0  0  0  0  0  0  0  0  0  0
  -18.4710   -4.6683  -28.5888 H   0  0  0  0  0  0  0  0  0  0  0  0
  -18.1817   -2.2754  -27.9393 H   0  0  0  0  0  0  0  0  0  0  0  0
  -18.9927   -2.2660  -26.3539 H   0  0  0  0  0  0  0  0  0  0  0  0
  -17.2494   -2.0204  -26.4434 H   0  0  0  0  0  0  0  0  0  0  0  0
  -24.8332   -4.9875  -22.0567 H   0  0  0  0  0  0  0  0  0  0  0  0
  -24.4104   -3.2419  -22.0752 H   0  0  0  0  0  0  0  0  0  0  0  0
  -25.8929   -3.8159  -22.9116 H   0  0  0  0  0  0  0  0  0  0  0  0
  -20.0886   -5.2295  -36.2238 H   0  0  0  0  0  0  0  0  0  0  0  0
  -18.4377   -5.0455  -35.6301 H   0  0  0  0  0  0  0  0  0  0  0  0
  -24.5949   -4.6132  -24.6770 H   0  0  0  0  0  0  0  0  0  0  0  0
  1  3  1  0  0  0  0
  1 10  2  0  0  0  0
  2  4  2  0  0  0  0
  2 10  1  0  0  0  0
  3 12  2  0  0  0  0
  4 12  1  0  0  0  0
  5  8  1  0  0  0  0
  5 18  2  0  0  0  0
  6 13  2  0  0  0  0
  6 15  1  0  0  0  0
  7 16  1  0  0  0  0
  7 17  2  0  0  0  0
  8 29  2  0  0  0  0
  9 14  1  0  0  0  0
  9 15  1  0  0  0  0
  9 16  2  0  0  0  0
 10 11  1  0  0  0  0
 11 13  1  0  0  0  0
 11 14  2  0  0  0  0
 12 28  1  0  0  0  0
 13 24  1  0  0  0  0
 14 25  1  0  0  0  0
 15 30  2  0  0  0  0
 16 31  1  0  0  0  0
 17 19  1  0  0  0  0
 17 30  1  0  0  0  0
 18 26  1  0  0  0  0
 18 31  1  0  0  0  0
 19 33  1  0  0  0  0
 19 34  2  0  0  0  0
 20 22  1  0  0  0  0
 20 32  1  0  0  0  0
 21 23  1  0  0  0  0
 21 32  1  0  0  0  0
 22 35  1  0  0  0  0
 23 35  1  0  0  0  0
 27 33  1  0  0  0  0
 28 32  1  0  0  0  0
 29 31  1  0  0  0  0
  1 36  1  0  0  0  0
  2 37  1  0  0  0  0
  3 38  1  0  0  0  0
  4 39  1  0  0  0  0
  5 40  1  0  0  0  0
  6 41  1  0  0  0  0
  7 42  1  0  0  0  0
  8 43  1  0  0  0  0
 20 44  1  0  0  0  0
 20 45  1  0  0  0  0
 21 46  1  0  0  0  0
 21 47  1  0  0  0  0
 22 48  1  0  0  0  0
 22 49  1  0  0  0  0
 23 50  1  0  0  0  0
 23 51  1  0  0  0  0
 24 52  1  0  0  0  0
 24 53  1  0  0  0  0
 24 54  1  0  0  0  0
 25 55  1  0  0  0  0
 25 56  1  0  0  0  0
 25 57  1  0  0  0  0
 26 58  1  0  0  0  0
 26 59  1  0  0  0  0
 26 60  1  0  0  0  0
 27 61  1  0  0  0  0
 27 62  1  0  0  0  0
 27 63  1  0  0  0  0
 28 64  1  0  0  0  0
 28 65  1  0  0  0  0
 33 66  1  0  0  0  0
M  END
> <SMILES>
CNC(=O)c1cc(c2c(c(c(cc2n1)C)-c1ccc(cc1)CN1CCOCC1)C)-n1nccc1C

> <FORMATTED_ID>
H3D-004372

> <MOLFORMULA>
C28H31N5O2

> <Exact Mass>
469.25

> <XLogP>
3.84

> <TPSA_NOPS>
72.3

> <s_m_source_file>
ligprep_h3d.sdf

> <i_m_source_file_index>
589

> <i_lp_mmshare_version>
55123

> <i_f3d_flags>
0

> <s_epik_input>
W0NIM11jMVtjSF1bY0hdbm4xLWMyW2NIXWMoQyg9TylbTkhdW0NIM10pbmMoYzIzKVtjSF1jKFtDSDNdKWMoYzNbQ0gzXSktYzRbY0hdW2NIXWMoW2NIXVtjSF00KVtDSDJdTjVbQ0gyXVtDSDJdT1tDSDJdW0NIMl01

> <s_epik_cmdline>
J2VwaWtfcHl0aG9uJywgJy1waHQnLCAnMC41JywgJy1waCcsICc3LjUnLCAnLXRuJywgJzgnLCAnLW1hJywgJzUwMCcsICctaW1hZScsICc8aW5maWxlLm1hZT4nLCAnLW9tYWUnLCAnPG91dGZpbGUubWFlPic=

> <r_lp_tautomer_probability>
1

> <r_epik_Ionization_Penalty>
0.105559

> <r_epik_Ionization_Penalty_Charging>
0

> <r_epik_Ionization_Penalty_Neutral>
0.105559

> <r_epik_State_Penalty>
0.095414

> <r_epik_Charging_Adjusted_Penalty>
0.095414

> <i_epik_Tot_Q>
0

> <i_epik_Tot_abs_Q>
0

> <s_lp_Force_Field>
S-OPLS

> <r_lp_Energy>
63.1088

> <b_lp_Chiralities_Consistent>
1

> <s_lp_Variant>
ligprep_h3d.sdf:589-1

> <ROCS_ShapeQuery>
_7L13

> <ROCS_TanimotoCombo>
0.743 

> <ROCS_ShapeTanimoto>
0.631 

> <ROCS_ColorTanimoto>
0.113 

> <ROCS_RefTversky>
0.767 

> <ROCS_RefColorTversky>
0.223 

> <ROCS_RefTverskyCombo>
0.990 

> <ROCS_FitTversky>
0.780 

> <ROCS_FitColorTversky>
0.186 

> <ROCS_FitTverskyCombo>
0.966 

> <ROCS_ColorScore>
-2.027

> <ROCS_Overlap>
1272.732

> <ROCS_Rank>
581                 

$$$$
ligprep_h3d.sdf:1209_1911
  -OEChem-08212117123D

 83 88  0     1  0  0  0  0  0999 V2000
  -30.1536   -7.1153  -19.8353 C   0  0  0  0  0  0  0  0  0  0  0  0
  -29.0446   -6.4357  -19.3315 C   0  0  0  0  0  0  0  0  0  0  0  0
  -30.2734   -7.3341  -21.2077 C   0  0  0  0  0  0  0  0  0  0  0  0
  -28.0554   -5.9748  -20.2002 C   0  0  0  0  0  0  0  0  0  0  0  0
  -29.2841   -6.8731  -22.0764 C   0  0  0  0  0  0  0  0  0  0  0  0
  -26.8910   -6.3979  -23.6621 C   0  0  0  0  0  0  0  0  0  0  0  0
  -26.4170   -4.5719  -22.1527 C   0  0  0  0  0  0  0  0  0  0  0  0
  -25.9016   -5.9369  -24.5305 C   0  0  0  0  0  0  0  0  0  0  0  0
  -25.4275   -4.1109  -23.0211 C   0  0  0  0  0  0  0  0  0  0  0  0
  -19.8725   -8.2309  -35.7991 C   0  0  0  0  0  0  0  0  0  0  0  0
  -20.6064   -7.9733  -34.6376 C   0  0  0  0  0  0  0  0  0  0  0  0
  -19.0598   -5.9434  -35.8623 C   0  0  0  0  0  0  0  0  0  0  0  0
  -19.9677   -4.4979  -33.8899 C   0  0  0  0  0  0  0  0  0  0  0  0
  -19.7914   -5.6601  -34.6919 C   0  0  0  0  0  0  0  0  0  0  0  0
  -28.1751   -6.1934  -21.5726 C   0  0  0  0  0  0  0  0  0  0  0  0
  -27.1487   -5.7154  -22.4732 C   0  0  0  0  0  0  0  0  0  0  0  0
  -25.1698   -4.7934  -24.2100 C   0  0  0  0  0  0  0  0  0  0  0  0
  -19.1105   -7.2331  -36.4036 C   0  0  0  0  0  0  0  0  0  0  0  0
  -20.5463   -6.6795  -34.1077 C   0  0  0  0  0  0  0  0  0  0  0  0
  -20.8107   -4.8279  -32.8539 C   0  0  0  0  0  0  0  0  0  0  0  0
  -21.2931   -3.9719  -31.7649 C   0  0  0  0  0  0  0  0  0  0  0  0
  -21.3850   -5.0816  -26.9412 C   0  0  0  0  0  0  0  0  0  0  0  0
  -22.2693   -4.5185  -23.4470 C   0  0  0  0  0  0  0  0  0  0  0  0
  -22.1171   -2.8377  -28.8090 C   0  0  0  0  0  0  0  0  0  0  0  0
  -20.7448   -2.9874  -28.1336 C   0  0  0  0  0  0  0  0  0  0  0  0
  -22.6155   -3.9789  -29.6955 C   0  0  0  0  0  0  0  0  0  0  0  0
  -20.8383   -5.6975  -29.9474 C   0  0  0  0  0  0  0  0  0  0  0  0
  -18.9924   -6.3477  -28.3196 C   0  0  0  0  0  0  0  0  0  0  0  0
  -19.0395   -4.3743  -26.8701 C   0  0  0  0  0  0  0  0  0  0  0  0
  -19.7907   -5.2145  -28.9512 C   0  0  2  0  0  0  0  0  0  0  0  0
  -20.2986   -4.4050  -27.7457 C   0  0  1  0  0  0  0  0  0  0  0  0
  -18.3382   -7.5412  -37.6434 C   0  0  0  0  0  0  0  0  0  0  0  0
  -21.6635   -5.5571  -21.2624 C   0  0  0  0  0  0  0  0  0  0  0  0
  -24.0995   -4.2945  -25.1498 C   0  0  0  0  0  0  0  0  0  0  0  0
  -22.7217   -4.8975  -24.8527 C   0  0  1  0  0  0  0  0  0  0  0  0
  -21.1541   -6.1459  -32.9937 N   0  0  0  0  0  0  0  0  0  0  0  0
  -21.5807   -4.5717  -30.5337 N   0  0  0  0  0  0  0  0  0  0  0  0
  -21.7094   -4.4247  -25.7696 N   0  0  0  0  0  0  0  0  0  0  0  0
  -22.0515   -5.6355  -22.6524 N   0  0  0  0  0  0  0  0  0  0  0  0
  -18.4003   -5.7232  -27.0870 N   0  3  0  0  0  0  0  0  0  0  0  0
  -21.4049   -2.7742  -32.0216 O   0  0  0  0  0  0  0  0  0  0  0  0
  -21.8878   -6.1189  -27.3572 O   0  0  0  0  0  0  0  0  0  0  0  0
  -22.1603   -3.3535  -23.0705 O   0  0  0  0  0  0  0  0  0  0  0  0
  -30.9229   -7.4757  -19.1586 H   0  0  0  0  0  0  0  0  0  0  0  0
  -28.9504   -6.2668  -18.2628 H   0  0  0  0  0  0  0  0  0  0  0  0
  -31.1359   -7.8644  -21.6005 H   0  0  0  0  0  0  0  0  0  0  0  0
  -27.1967   -5.4468  -19.7920 H   0  0  0  0  0  0  0  0  0  0  0  0
  -29.3908   -7.0516  -23.1437 H   0  0  0  0  0  0  0  0  0  0  0  0
  -27.4533   -7.2904  -23.9264 H   0  0  0  0  0  0  0  0  0  0  0  0
  -26.6057   -4.0293  -21.2294 H   0  0  0  0  0  0  0  0  0  0  0  0
  -25.7083   -6.4743  -25.4551 H   0  0  0  0  0  0  0  0  0  0  0  0
  -24.8618   -3.2194  -22.7632 H   0  0  0  0  0  0  0  0  0  0  0  0
  -19.9039   -9.2294  -36.2294 H   0  0  0  0  0  0  0  0  0  0  0  0
  -21.1994   -8.7506  -34.1676 H   0  0  0  0  0  0  0  0  0  0  0  0
  -18.4642   -5.1682  -36.3370 H   0  0  0  0  0  0  0  0  0  0  0  0
  -19.5232   -3.5257  -34.0571 H   0  0  0  0  0  0  0  0  0  0  0  0
  -22.8818   -2.6046  -28.0361 H   0  0  0  0  0  0  0  0  0  0  0  0
  -22.0778   -1.9166  -29.4294 H   0  0  0  0  0  0  0  0  0  0  0  0
  -20.0012   -2.5515  -28.8157 H   0  0  0  0  0  0  0  0  0  0  0  0
  -20.7413   -2.3430  -27.2434 H   0  0  0  0  0  0  0  0  0  0  0  0
  -23.0481   -4.7577  -29.0428 H   0  0  0  0  0  0  0  0  0  0  0  0
  -23.4580   -3.6539  -30.3336 H   0  0  0  0  0  0  0  0  0  0  0  0
  -20.3551   -6.2055  -30.7640 H   0  0  0  0  0  0  0  0  0  0  0  0
  -21.5338   -6.3688  -29.4813 H   0  0  0  0  0  0  0  0  0  0  0  0
  -19.6071   -7.1833  -27.9805 H   0  0  0  0  0  0  0  0  0  0  0  0
  -18.1735   -6.7045  -28.9449 H   0  0  0  0  0  0  0  0  0  0  0  0
  -18.3040   -3.6388  -27.2011 H   0  0  0  0  0  0  0  0  0  0  0  0
  -19.2295   -4.2705  -25.8012 H   0  0  0  0  0  0  0  0  0  0  0  0
  -19.0637   -4.5722  -29.5005 H   0  0  0  0  0  0  0  0  0  0  0  0
  -18.9513   -7.3477  -38.5316 H   0  0  0  0  0  0  0  0  0  0  0  0
  -17.4290   -6.9302  -37.7070 H   0  0  0  0  0  0  0  0  0  0  0  0
  -18.0187   -8.5908  -37.6616 H   0  0  0  0  0  0  0  0  0  0  0  0
  -20.5661   -5.5406  -21.1879 H   0  0  0  0  0  0  0  0  0  0  0  0
  -22.0749   -4.6387  -20.8183 H   0  0  0  0  0  0  0  0  0  0  0  0
  -22.0544   -6.4323  -20.7228 H   0  0  0  0  0  0  0  0  0  0  0  0
  -24.3913   -4.5055  -26.1875 H   0  0  0  0  0  0  0  0  0  0  0  0
  -24.0624   -3.1994  -25.0782 H   0  0  0  0  0  0  0  0  0  0  0  0
  -22.7383   -5.9901  -24.9420 H   0  0  0  0  0  0  0  0  0  0  0  0
  -21.7653   -6.6566  -32.3712 H   0  0  0  0  0  0  0  0  0  0  0  0
  -21.2127   -3.5687  -25.5418 H   0  0  0  0  0  0  0  0  0  0  0  0
  -22.1708   -6.5543  -23.0688 H   0  0  0  0  0  0  0  0  0  0  0  0
  -18.5543   -6.3311  -26.2740 H   0  0  0  0  0  0  0  0  0  0  0  0
  -17.3840   -5.6187  -27.1886 H   0  0  0  0  0  0  0  0  0  0  0  0
  1  2  2  0  0  0  0
  1  3  1  0  0  0  0
  2  4  1  0  0  0  0
  3  5  2  0  0  0  0
  4 15  2  0  0  0  0
  5 15  1  0  0  0  0
  6  8  1  0  0  0  0
  6 16  2  0  0  0  0
  7  9  2  0  0  0  0
  7 16  1  0  0  0  0
  8 17  2  0  0  0  0
  9 17  1  0  0  0  0
 10 11  1  0  0  0  0
 10 18  2  0  0  0  0
 11 19  2  0  0  0  0
 12 14  2  0  0  0  0
 12 18  1  0  0  0  0
 13 14  1  0  0  0  0
 13 20  2  0  0  0  0
 14 19  1  0  0  0  0
 15 16  1  0  0  0  0
 17 34  1  0  0  0  0
 18 32  1  0  0  0  0
 19 36  1  0  0  0  0
 20 21  1  0  0  0  0
 20 36  1  0  0  0  0
 21 37  1  0  0  0  0
 21 41  2  0  0  0  0
 22 31  1  0  0  0  0
 22 38  1  0  0  0  0
 22 42  2  0  0  0  0
 23 35  1  0  0  0  0
 23 39  1  0  0  0  0
 23 43  2  0  0  0  0
 24 25  1  0  0  0  0
 24 26  1  0  0  0  0
 25 31  1  0  0  0  0
 26 37  1  0  0  0  0
 27 30  1  0  0  0  0
 27 37  1  0  0  0  0
 28 30  1  0  0  0  0
 28 40  1  0  0  0  0
 29 31  1  0  0  0  0
 29 40  1  0  0  0  0
 30 31  1  0  0  0  0
 33 39  1  0  0  0  0
 34 35  1  0  0  0  0
 35 38  1  0  0  0  0
  1 44  1  0  0  0  0
  2 45  1  0  0  0  0
  3 46  1  0  0  0  0
  4 47  1  0  0  0  0
  5 48  1  0  0  0  0
  6 49  1  0  0  0  0
  7 50  1  0  0  0  0
  8 51  1  0  0  0  0
  9 52  1  0  0  0  0
 10 53  1  0  0  0  0
 11 54  1  0  0  0  0
 12 55  1  0  0  0  0
 13 56  1  0  0  0  0
 24 57  1  0  0  0  0
 24 58  1  0  0  0  0
 25 59  1  0  0  0  0
 25 60  1  0  0  0  0
 26 61  1  0  0  0  0
 26 62  1  0  0  0  0
 27 63  1  0  0  0  0
 27 64  1  0  0  0  0
 28 65  1  0  0  0  0
 28 66  1  0  0  0  0
 29 67  1  0  0  0  0
 29 68  1  0  0  0  0
 30 69  1  0  0  0  0
 32 70  1  0  0  0  0
 32 71  1  0  0  0  0
 32 72  1  0  0  0  0
 33 73  1  0  0  0  0
 33 74  1  0  0  0  0
 33 75  1  0  0  0  0
 34 76  1  0  0  0  0
 34 77  1  0  0  0  0
 35 78  1  0  0  0  0
 36 79  1  0  0  0  0
 38 80  1  0  0  0  0
 39 81  1  0  0  0  0
 40 82  1  0  0  0  0
 40 83  1  0  0  0  0
M  CHG  1  40   1
M  END
> <SMILES>
CNC(=O)[C@@H](Cc1ccc(cc1)-c1ccccc1)NC(=O)[C@@]12CCCN(C[C@@H]2CNC1)C(=O)c1cc2cc(ccc2[nH]1)C

> <FORMATTED_ID>
H3D-008336

> <MOLFORMULA>
C35H39N5O3

> <Exact Mass>
577.31

> <XLogP>
4.88

> <TPSA_NOPS>
106.3

> <s_m_source_file>
ligprep_h3d.sdf

> <i_m_source_file_index>
1209

> <i_lp_mmshare_version>
55123

> <i_f3d_flags>
0

> <s_epik_input>
W2NIXTFbY0hdW2NIXVtjSF1bY0hdYzEtYyhbY0hdW2NIXTIpW2NIXVtjSF1jMltDSDJdW0NASF0oQyg9TylbTkhdW0NIM10pW05IXUMoPU8pW0NAQF0zNFtDQEBIXShbQ0gyXVtOSF1bQ0gyXTQpW0NIMl1OKFtDSDJdW0NIMl1bQ0gyXTMpQyg9TyljKFtjSF01KVtuSF1jKGM1NilbY0hdW2NIXWMoW2NIXTYpW0NIM10=

> <s_epik_cmdline>
J2VwaWtfcHl0aG9uJywgJy1waHQnLCAnMC41JywgJy1waCcsICc3LjUnLCAnLXRuJywgJzgnLCAnLW1hJywgJzUwMCcsICctaW1hZScsICc8aW5maWxlLm1hZT4nLCAnLW9tYWUnLCAnPG91dGZpbGUubWFlPic=

> <r_lp_tautomer_probability>
1

> <r_epik_Ionization_Penalty>
0.0018685

> <r_epik_Ionization_Penalty_Charging>
0.00186568

> <r_epik_Ionization_Penalty_Neutral>
2.8252e-06

> <r_epik_State_Penalty>
-0

> <r_epik_Charging_Adjusted_Penalty>
0.00186568

> <i_epik_Tot_Q>
1

> <i_epik_Tot_abs_Q>
1

> <s_lp_Force_Field>
S-OPLS

> <r_lp_Energy>
56.7775

> <b_lp_Chiralities_Consistent>
1

> <s_lp_Variant>
ligprep_h3d.sdf:1209-1

> <ROCS_ShapeQuery>
_7L13

> <ROCS_TanimotoCombo>
0.595 

> <ROCS_ShapeTanimoto>
0.548 

> <ROCS_ColorTanimoto>
0.048 

> <ROCS_RefTversky>
0.767 

> <ROCS_RefColorTversky>
0.113 

> <ROCS_RefTverskyCombo>
0.880 

> <ROCS_FitTversky>
0.657 

> <ROCS_FitColorTversky>
0.076 

> <ROCS_FitTverskyCombo>
0.733 

> <ROCS_ColorScore>
-1.044

> <ROCS_Overlap>
1285.713

> <ROCS_Rank>
582                 

$$$$
ligprep_h3d.sdf:5455_1224
  -OEChem-08212117123D

 66 69  0     0  0  0  0  0  0999 V2000
  -18.2370   -6.2816  -26.6255 C   0  0  0  0  0  0  0  0  0  0  0  0
  -18.1046   -4.0539  -25.7287 C   0  0  0  0  0  0  0  0  0  0  0  0
  -22.7395   -4.5466  -29.4203 C   0  0  0  0  0  0  0  0  0  0  0  0
  -19.9418   -4.8603  -29.4534 C   0  0  0  0  0  0  0  0  0  0  0  0
  -16.9732   -6.5083  -26.1046 C   0  0  0  0  0  0  0  0  0  0  0  0
  -16.8469   -4.3804  -25.2477 C   0  0  0  0  0  0  0  0  0  0  0  0
  -22.0072   -4.5757  -28.2394 C   0  0  0  0  0  0  0  0  0  0  0  0
  -18.8064   -5.0283  -26.4296 C   0  0  0  0  0  0  0  0  0  0  0  0
  -20.6155   -4.7491  -28.2434 C   0  0  0  0  0  0  0  0  0  0  0  0
  -22.0605   -4.6726  -30.6305 C   0  0  0  0  0  0  0  0  0  0  0  0
  -20.6697   -4.8242  -30.6469 C   0  0  0  0  0  0  0  0  0  0  0  0
  -19.7706   -6.1802  -33.8541 C   0  0  0  0  0  0  0  0  0  0  0  0
  -23.4802   -3.3015  -26.6066 C   0  0  0  0  0  0  0  0  0  0  0  0
  -23.1871   -5.8036  -26.4051 C   0  0  0  0  0  0  0  0  0  0  0  0
  -21.1637   -4.2525  -26.0664 C   0  0  0  0  0  0  0  0  0  0  0  0
  -24.0433   -3.2654  -25.1918 C   0  0  0  0  0  0  0  0  0  0  0  0
  -23.7977   -5.7556  -25.0081 C   0  0  0  0  0  0  0  0  0  0  0  0
  -22.5132   -4.4788  -26.8208 C   0  0  0  0  0  0  0  0  0  0  0  0
  -18.3289   -6.6711  -36.2599 C   0  0  0  0  0  0  0  0  0  0  0  0
  -19.2705   -8.9963  -36.1330 C   0  0  0  0  0  0  0  0  0  0  0  0
  -20.8174   -7.0317  -36.3683 C   0  0  0  0  0  0  0  0  0  0  0  0
  -25.4351   -4.5481  -23.5700 C   0  0  0  0  0  0  0  0  0  0  0  0
  -22.9631   -3.3754  -32.4077 C   0  0  0  0  0  0  0  0  0  0  0  0
  -19.8256   -6.2525  -32.3508 C   0  0  0  0  0  0  0  0  0  0  0  0
  -19.4984   -7.5285  -35.7783 C   0  0  0  0  0  0  0  0  0  0  0  0
  -16.2610   -5.5868  -25.4183 N   0  0  0  0  0  0  0  0  0  0  0  0
  -20.0793   -4.7487  -26.9358 N   0  0  0  0  0  0  0  0  0  0  0  0
  -24.7314   -4.5764  -24.8991 N   0  3  0  0  0  0  0  0  0  0  0  0
  -19.8846   -5.1545  -34.5114 O   0  0  0  0  0  0  0  0  0  0  0  0
  -22.7652   -4.6486  -31.7968 O   0  0  0  0  0  0  0  0  0  0  0  0
  -20.0055   -4.9367  -31.8328 O   0  0  0  0  0  0  0  0  0  0  0  0
  -19.5738   -7.4363  -34.3521 O   0  0  0  0  0  0  0  0  0  0  0  0
  -18.7580   -7.0637  -27.1676 H   0  0  0  0  0  0  0  0  0  0  0  0
  -18.5196   -3.0661  -25.5580 H   0  0  0  0  0  0  0  0  0  0  0  0
  -23.8176   -4.4230  -29.4051 H   0  0  0  0  0  0  0  0  0  0  0  0
  -18.8612   -4.9684  -29.4790 H   0  0  0  0  0  0  0  0  0  0  0  0
  -16.4853   -7.4694  -26.2299 H   0  0  0  0  0  0  0  0  0  0  0  0
  -16.2586   -3.6560  -24.6942 H   0  0  0  0  0  0  0  0  0  0  0  0
  -24.3165   -3.3748  -27.3108 H   0  0  0  0  0  0  0  0  0  0  0  0
  -22.9853   -2.3482  -26.8170 H   0  0  0  0  0  0  0  0  0  0  0  0
  -22.4665   -6.6343  -26.4571 H   0  0  0  0  0  0  0  0  0  0  0  0
  -23.9822   -6.0646  -27.1212 H   0  0  0  0  0  0  0  0  0  0  0  0
  -20.9991   -3.2009  -25.8077 H   0  0  0  0  0  0  0  0  0  0  0  0
  -21.1456   -4.8254  -25.1284 H   0  0  0  0  0  0  0  0  0  0  0  0
  -23.2684   -3.1211  -24.4358 H   0  0  0  0  0  0  0  0  0  0  0  0
  -24.7930   -2.4758  -25.0996 H   0  0  0  0  0  0  0  0  0  0  0  0
  -24.3888   -6.6609  -24.8199 H   0  0  0  0  0  0  0  0  0  0  0  0
  -23.0360   -5.6556  -24.2238 H   0  0  0  0  0  0  0  0  0  0  0  0
  -18.4887   -5.6168  -36.0072 H   0  0  0  0  0  0  0  0  0  0  0  0
  -17.3817   -6.9952  -35.8166 H   0  0  0  0  0  0  0  0  0  0  0  0
  -18.2339   -6.7165  -37.3508 H   0  0  0  0  0  0  0  0  0  0  0  0
  -20.1072   -9.6152  -35.7894 H   0  0  0  0  0  0  0  0  0  0  0  0
  -18.3747   -9.3838  -35.6343 H   0  0  0  0  0  0  0  0  0  0  0  0
  -19.1550   -9.1379  -37.2125 H   0  0  0  0  0  0  0  0  0  0  0  0
  -21.6565   -7.6466  -36.0231 H   0  0  0  0  0  0  0  0  0  0  0  0
  -21.0157   -5.9907  -36.0932 H   0  0  0  0  0  0  0  0  0  0  0  0
  -20.8082   -7.1072  -37.4617 H   0  0  0  0  0  0  0  0  0  0  0  0
  -24.6784   -4.4171  -22.7943 H   0  0  0  0  0  0  0  0  0  0  0  0
  -26.1356   -3.7109  -23.5805 H   0  0  0  0  0  0  0  0  0  0  0  0
  -25.9600   -5.4977  -23.4497 H   0  0  0  0  0  0  0  0  0  0  0  0
  -23.5387   -3.4978  -33.3284 H   0  0  0  0  0  0  0  0  0  0  0  0
  -21.9937   -2.9218  -32.6289 H   0  0  0  0  0  0  0  0  0  0  0  0
  -23.5153   -2.7324  -31.7182 H   0  0  0  0  0  0  0  0  0  0  0  0
  -18.8842   -6.6570  -31.9697 H   0  0  0  0  0  0  0  0  0  0  0  0
  -20.6726   -6.8727  -32.0453 H   0  0  0  0  0  0  0  0  0  0  0  0
  -25.4639   -4.7003  -25.6116 H   0  0  0  0  0  0  0  0  0  0  0  0
  1  5  1  0  0  0  0
  1  8  2  0  0  0  0
  2  6  2  0  0  0  0
  2  8  1  0  0  0  0
  3  7  1  0  0  0  0
  3 10  2  0  0  0  0
  4  9  1  0  0  0  0
  4 11  2  0  0  0  0
  5 26  2  0  0  0  0
  6 26  1  0  0  0  0
  7  9  2  0  0  0  0
  7 18  1  0  0  0  0
  8 27  1  0  0  0  0
  9 27  1  0  0  0  0
 10 11  1  0  0  0  0
 10 30  1  0  0  0  0
 11 31  1  0  0  0  0
 12 24  1  0  0  0  0
 12 29  2  0  0  0  0
 12 32  1  0  0  0  0
 13 16  1  0  0  0  0
 13 18  1  0  0  0  0
 14 17  1  0  0  0  0
 14 18  1  0  0  0  0
 15 18  1  0  0  0  0
 15 27  1  0  0  0  0
 16 28  1  0  0  0  0
 17 28  1  0  0  0  0
 19 25  1  0  0  0  0
 20 25  1  0  0  0  0
 21 25  1  0  0  0  0
 22 28  1  0  0  0  0
 23 30  1  0  0  0  0
 24 31  1  0  0  0  0
 25 32  1  0  0  0  0
  1 33  1  0  0  0  0
  2 34  1  0  0  0  0
  3 35  1  0  0  0  0
  4 36  1  0  0  0  0
  5 37  1  0  0  0  0
  6 38  1  0  0  0  0
 13 39  1  0  0  0  0
 13 40  1  0  0  0  0
 14 41  1  0  0  0  0
 14 42  1  0  0  0  0
 15 43  1  0  0  0  0
 15 44  1  0  0  0  0
 16 45  1  0  0  0  0
 16 46  1  0  0  0  0
 17 47  1  0  0  0  0
 17 48  1  0  0  0  0
 19 49  1  0  0  0  0
 19 50  1  0  0  0  0
 19 51  1  0  0  0  0
 20 52  1  0  0  0  0
 20 53  1  0  0  0  0
 20 54  1  0  0  0  0
 21 55  1  0  0  0  0
 21 56  1  0  0  0  0
 21 57  1  0  0  0  0
 22 58  1  0  0  0  0
 22 59  1  0  0  0  0
 22 60  1  0  0  0  0
 23 61  1  0  0  0  0
 23 62  1  0  0  0  0
 23 63  1  0  0  0  0
 24 64  1  0  0  0  0
 24 65  1  0  0  0  0
 28 66  1  0  0  0  0
M  CHG  1  28   1
M  END
> <SMILES>
COc1cc2c(cc1OCC(=O)OC(C)(C)C)N(CC12CCN(C)CC1)c1ccncc1

> <FORMATTED_ID>
H3D-016179

> <MOLFORMULA>
C25H33N3O4

> <Exact Mass>
439.25

> <XLogP>
4.2

> <TPSA_NOPS>
64.1

> <s_m_source_file>
ligprep_h3d.sdf

> <i_m_source_file_index>
5455

> <i_lp_mmshare_version>
55123

> <i_f3d_flags>
0

> <s_epik_input>
W0NIM11DKFtDSDNdKShbQ0gzXSlPQyg9TylbQ0gyXU9jKGMoW2NIXTEpT1tDSDNdKVtjSF1jKGMxQzIzW0NIMl1bQ0gyXU4oW0NIM10pW0NIMl1bQ0gyXTMpTihbQ0gyXTIpYzRbY0hdW2NIXW5bY0hdW2NIXTQ=

> <s_epik_cmdline>
J2VwaWtfcHl0aG9uJywgJy1waHQnLCAnMC41JywgJy1waCcsICc3LjUnLCAnLXRuJywgJzgnLCAnLW1hJywgJzUwMCcsICctaW1hZScsICc8aW5maWxlLm1hZT4nLCAnLW9tYWUnLCAnPG91dGZpbGUubWFlPic=

> <r_lp_tautomer_probability>
1

> <r_epik_Ionization_Penalty>
0.130098

> <r_epik_Ionization_Penalty_Charging>
0.00689193

> <r_epik_Ionization_Penalty_Neutral>
0.123206

> <r_epik_State_Penalty>
0.112704

> <r_epik_Charging_Adjusted_Penalty>
0.119596

> <i_epik_Tot_Q>
1

> <i_epik_Tot_abs_Q>
1

> <s_epik_Chemistry_Notes>
This compound has an ester and may undergo hydrolysis at high or low pH.

> <s_lp_Force_Field>
S-OPLS

> <r_lp_Energy>
64.1045

> <b_lp_Chiralities_Consistent>
1

> <s_lp_Variant>
ligprep_h3d.sdf:5455-1

> <ROCS_ShapeQuery>
_7L13

> <ROCS_TanimotoCombo>
0.762 

> <ROCS_ShapeTanimoto>
0.686 

> <ROCS_ColorTanimoto>
0.076 

> <ROCS_RefTversky>
0.767 

> <ROCS_RefColorTversky>
0.156 

> <ROCS_RefTverskyCombo>
0.923 

> <ROCS_FitTversky>
0.867 

> <ROCS_FitColorTversky>
0.130 

> <ROCS_FitTverskyCombo>
0.997 

> <ROCS_ColorScore>
-1.419

> <ROCS_Overlap>
1265.559

> <ROCS_Rank>
583                 

$$$$
ligprep_h3d.sdf:5330_834
  -OEChem-08212117123D

 67 72  0     0  0  0  0  0  0999 V2000
  -19.8528   -6.5810  -35.8116 C   0  0  0  0  0  0  0  0  0  0  0  0
  -19.6536   -7.6299  -34.9140 C   0  0  0  0  0  0  0  0  0  0  0  0
  -20.0205   -5.2798  -35.3378 C   0  0  0  0  0  0  0  0  0  0  0  0
  -19.6222   -7.3776  -33.5425 C   0  0  0  0  0  0  0  0  0  0  0  0
  -19.9892   -5.0275  -33.9663 C   0  0  0  0  0  0  0  0  0  0  0  0
  -23.1525   -4.5640  -28.6857 C   0  0  0  0  0  0  0  0  0  0  0  0
  -20.3479   -4.6185  -28.9396 C   0  0  0  0  0  0  0  0  0  0  0  0
  -14.8832   -4.3156  -25.4557 C   0  0  0  0  0  0  0  0  0  0  0  0
  -14.7226   -5.4703  -24.7355 C   0  0  0  0  0  0  0  0  0  0  0  0
  -22.3325   -4.5495  -27.5639 C   0  0  0  0  0  0  0  0  0  0  0  0
  -19.7900   -6.0764  -33.0686 C   0  0  0  0  0  0  0  0  0  0  0  0
  -20.9373   -4.5786  -27.6812 C   0  0  0  0  0  0  0  0  0  0  0  0
  -22.5598   -4.6135  -29.9467 C   0  0  0  0  0  0  0  0  0  0  0  0
  -21.1659   -4.6391  -30.0729 C   0  0  0  0  0  0  0  0  0  0  0  0
  -16.8597   -5.3051  -25.2741 C   0  0  0  0  0  0  0  0  0  0  0  0
  -18.3237   -5.4853  -25.4678 C   0  0  0  0  0  0  0  0  0  0  0  0
  -18.1909   -3.3892  -26.6868 C   0  0  0  0  0  0  0  0  0  0  0  0
  -16.8650   -3.2507  -26.4971 C   0  0  0  0  0  0  0  0  0  0  0  0
  -18.9694   -4.5283  -26.1692 C   0  0  0  0  0  0  0  0  0  0  0  0
  -24.6894   -3.9862  -24.0074 C   0  0  0  0  0  0  0  0  0  0  0  0
  -24.2151   -5.3929  -24.2608 C   0  0  0  0  0  0  0  0  0  0  0  0
  -23.7519   -2.8610  -24.3651 C   0  0  0  0  0  0  0  0  0  0  0  0
  -23.7774   -5.5156  -25.7171 C   0  0  0  0  0  0  0  0  0  0  0  0
  -23.2700   -3.0295  -25.8053 C   0  0  0  0  0  0  0  0  0  0  0  0
  -21.3553   -4.7093  -25.4160 C   0  0  0  0  0  0  0  0  0  0  0  0
  -22.7311   -4.4491  -26.1097 C   0  0  0  0  0  0  0  0  0  0  0  0
  -23.7076   -3.3676  -31.6158 C   0  0  0  0  0  0  0  0  0  0  0  0
  -27.4206   -2.1225  -23.4562 C   0  0  0  0  0  0  0  0  0  0  0  0
  -19.7566   -5.8044  -31.5934 C   0  0  0  0  0  0  0  0  0  0  0  0
  -25.8476   -3.7747  -23.4744 N   0  0  0  0  0  0  0  0  0  0  0  0
  -16.2211   -4.2337  -25.7802 N   0  0  0  0  0  0  0  0  0  0  0  0
  -15.9608   -6.0616  -24.6391 N   0  3  0  0  0  0  0  0  0  0  0  0
  -20.3002   -4.5563  -26.4252 N   0  0  0  0  0  0  0  0  0  0  0  0
  -23.3518   -4.6297  -31.0560 O   0  0  0  0  0  0  0  0  0  0  0  0
  -20.5894   -4.6831  -31.3080 O   0  0  0  0  0  0  0  0  0  0  0  0
  -26.0303   -2.3916  -23.3543 O   0  0  0  0  0  0  0  0  0  0  0  0
  -19.8758   -6.7774  -36.8796 H   0  0  0  0  0  0  0  0  0  0  0  0
  -19.5219   -8.6429  -35.2828 H   0  0  0  0  0  0  0  0  0  0  0  0
  -20.1745   -4.4628  -36.0365 H   0  0  0  0  0  0  0  0  0  0  0  0
  -19.4667   -8.2010  -32.8504 H   0  0  0  0  0  0  0  0  0  0  0  0
  -20.1209   -4.0106  -33.6063 H   0  0  0  0  0  0  0  0  0  0  0  0
  -24.2327   -4.5261  -28.5867 H   0  0  0  0  0  0  0  0  0  0  0  0
  -19.2690   -4.6396  -29.0578 H   0  0  0  0  0  0  0  0  0  0  0  0
  -14.2241   -3.5346  -25.7845 H   0  0  0  0  0  0  0  0  0  0  0  0
  -13.8979   -5.9705  -24.2677 H   0  0  0  0  0  0  0  0  0  0  0  0
  -18.8169   -6.3551  -25.0518 H   0  0  0  0  0  0  0  0  0  0  0  0
  -18.7263   -2.6290  -27.2487 H   0  0  0  0  0  0  0  0  0  0  0  0
  -16.2842   -2.4184  -26.8728 H   0  0  0  0  0  0  0  0  0  0  0  0
  -23.3854   -5.6058  -23.5786 H   0  0  0  0  0  0  0  0  0  0  0  0
  -25.0195   -6.1038  -24.0456 H   0  0  0  0  0  0  0  0  0  0  0  0
  -24.2539   -1.8947  -24.2506 H   0  0  0  0  0  0  0  0  0  0  0  0
  -22.9129   -2.8824  -23.6621 H   0  0  0  0  0  0  0  0  0  0  0  0
  -23.3874   -6.5254  -25.8977 H   0  0  0  0  0  0  0  0  0  0  0  0
  -24.6662   -5.4132  -26.3543 H   0  0  0  0  0  0  0  0  0  0  0  0
  -24.1133   -2.8117  -26.4755 H   0  0  0  0  0  0  0  0  0  0  0  0
  -22.5066   -2.2706  -26.0205 H   0  0  0  0  0  0  0  0  0  0  0  0
  -21.1803   -4.0316  -24.5731 H   0  0  0  0  0  0  0  0  0  0  0  0
  -21.3053   -5.7332  -25.0222 H   0  0  0  0  0  0  0  0  0  0  0  0
  -24.3393   -3.5226  -32.4938 H   0  0  0  0  0  0  0  0  0  0  0  0
  -22.8019   -2.8242  -31.8967 H   0  0  0  0  0  0  0  0  0  0  0  0
  -24.2595   -2.7908  -30.8699 H   0  0  0  0  0  0  0  0  0  0  0  0
  -27.5920   -1.0471  -23.3655 H   0  0  0  0  0  0  0  0  0  0  0  0
  -27.9547   -2.6554  -22.6654 H   0  0  0  0  0  0  0  0  0  0  0  0
  -27.7786   -2.4654  -24.4298 H   0  0  0  0  0  0  0  0  0  0  0  0
  -20.1168   -6.6700  -31.0271 H   0  0  0  0  0  0  0  0  0  0  0  0
  -18.7354   -5.5869  -31.2622 H   0  0  0  0  0  0  0  0  0  0  0  0
  -16.1600   -6.9355  -24.1600 H   0  0  0  0  0  0  0  0  0  0  0  0
  1  2  2  0  0  0  0
  1  3  1  0  0  0  0
  2  4  1  0  0  0  0
  3  5  2  0  0  0  0
  4 11  2  0  0  0  0
  5 11  1  0  0  0  0
  6 10  2  0  0  0  0
  6 13  1  0  0  0  0
  7 12  2  0  0  0  0
  7 14  1  0  0  0  0
  8  9  2  0  0  0  0
  8 31  1  0  0  0  0
  9 32  1  0  0  0  0
 10 12  1  0  0  0  0
 10 26  1  0  0  0  0
 11 29  1  0  0  0  0
 12 33  1  0  0  0  0
 13 14  2  0  0  0  0
 13 34  1  0  0  0  0
 14 35  1  0  0  0  0
 15 16  1  0  0  0  0
 15 31  1  0  0  0  0
 15 32  2  0  0  0  0
 16 19  2  0  0  0  0
 17 18  2  0  0  0  0
 17 19  1  0  0  0  0
 18 31  1  0  0  0  0
 19 33  1  0  0  0  0
 20 21  1  0  0  0  0
 20 22  1  0  0  0  0
 20 30  2  0  0  0  0
 21 23  1  0  0  0  0
 22 24  1  0  0  0  0
 23 26  1  0  0  0  0
 24 26  1  0  0  0  0
 25 26  1  0  0  0  0
 25 33  1  0  0  0  0
 27 34  1  0  0  0  0
 28 36  1  0  0  0  0
 29 35  1  0  0  0  0
 30 36  1  0  0  0  0
  1 37  1  0  0  0  0
  2 38  1  0  0  0  0
  3 39  1  0  0  0  0
  4 40  1  0  0  0  0
  5 41  1  0  0  0  0
  6 42  1  0  0  0  0
  7 43  1  0  0  0  0
  8 44  1  0  0  0  0
  9 45  1  0  0  0  0
 16 46  1  0  0  0  0
 17 47  1  0  0  0  0
 18 48  1  0  0  0  0
 21 49  1  0  0  0  0
 21 50  1  0  0  0  0
 22 51  1  0  0  0  0
 22 52  1  0  0  0  0
 23 53  1  0  0  0  0
 23 54  1  0  0  0  0
 24 55  1  0  0  0  0
 24 56  1  0  0  0  0
 25 57  1  0  0  0  0
 25 58  1  0  0  0  0
 27 59  1  0  0  0  0
 27 60  1  0  0  0  0
 27 61  1  0  0  0  0
 28 62  1  0  0  0  0
 28 63  1  0  0  0  0
 28 64  1  0  0  0  0
 29 65  1  0  0  0  0
 29 66  1  0  0  0  0
 32 67  1  0  0  0  0
M  CHG  1  32   1
M  END
> <SMILES>
CON=C1CCC2(CC1)CN(c1ccn3ccnc3c1)c1cc(c(cc12)OC)OCc1ccccc1

> <FORMATTED_ID>
H3D-014926

> <MOLFORMULA>
C29H30N4O3

> <Exact Mass>
482.23

> <XLogP>
7.02

> <TPSA_NOPS>
60.6

> <s_m_source_file>
ligprep_h3d.sdf

> <i_m_source_file_index>
5330

> <i_lp_mmshare_version>
55123

> <i_f3d_flags>
0

> <s_epik_input>
W0NIM11PTj1DKFtDSDJdW0NIMl0xKVtDSDJdW0NIMl1bQ0BdMTJjM2MoTihbQ0gyXTIpYyhbY0hdW2NIXTQpW2NIXWMobjQ1KW5bY0hdW2NIXTUpW2NIXWMoYyhbY0hdMylPW0NIM10pT1tDSDJdYzZbY0hdW2NIXVtjSF1bY0hdW2NIXTY=

> <s_epik_cmdline>
J2VwaWtfcHl0aG9uJywgJy1waHQnLCAnMC41JywgJy1waCcsICc3LjUnLCAnLXRuJywgJzgnLCAnLW1hJywgJzUwMCcsICctaW1hZScsICc8aW5maWxlLm1hZT4nLCAnLW9tYWUnLCAnPG91dGZpbGUubWFlPic=

> <r_lp_tautomer_probability>
1

> <r_epik_Ionization_Penalty>
0.338065

> <r_epik_Ionization_Penalty_Charging>
0

> <r_epik_Ionization_Penalty_Neutral>
0.338065

> <r_epik_State_Penalty>
0.333556

> <r_epik_Charging_Adjusted_Penalty>
0.333556

> <i_epik_Tot_Q>
1

> <i_epik_Tot_abs_Q>
1

> <s_epik_Chemistry_Notes>
This compound has an imine and may undergo hydrolysis.

> <s_lp_Force_Field>
S-OPLS

> <r_lp_Energy>
66.9092

> <b_lp_Chiralities_Consistent>
1

> <s_lp_Variant>
ligprep_h3d.sdf:5330-1

> <ROCS_ShapeQuery>
_7L13

> <ROCS_TanimotoCombo>
0.676 

> <ROCS_ShapeTanimoto>
0.617 

> <ROCS_ColorTanimoto>
0.059 

> <ROCS_RefTversky>
0.767 

> <ROCS_RefColorTversky>
0.122 

> <ROCS_RefTverskyCombo>
0.889 

> <ROCS_FitTversky>
0.759 

> <ROCS_FitColorTversky>
0.102 

> <ROCS_FitTverskyCombo>
0.861 

> <ROCS_ColorScore>
-1.111

> <ROCS_Overlap>
1274.273

> <ROCS_Rank>
584                 

$$$$
ligprep_h3d.sdf:5052_1809
  -OEChem-08212117123D

 65 69  0     0  0  0  0  0  0999 V2000
  -19.2941   -5.5388  -34.8168 C   0  0  0  0  0  0  0  0  0  0  0  0
  -20.2903   -6.4634  -34.5032 C   0  0  0  0  0  0  0  0  0  0  0  0
  -19.2116   -4.3369  -34.1136 C   0  0  0  0  0  0  0  0  0  0  0  0
  -21.2040   -6.1861  -33.4864 C   0  0  0  0  0  0  0  0  0  0  0  0
  -20.1254   -4.0597  -33.0968 C   0  0  0  0  0  0  0  0  0  0  0  0
  -18.7484   -6.3171  -25.4078 C   0  0  0  0  0  0  0  0  0  0  0  0
  -23.6524   -3.9168  -27.7626 C   0  0  0  0  0  0  0  0  0  0  0  0
  -20.9613   -4.3801  -28.4492 C   0  0  0  0  0  0  0  0  0  0  0  0
  -18.3676   -4.0133  -25.9841 C   0  0  0  0  0  0  0  0  0  0  0  0
  -17.3817   -6.4387  -25.2154 C   0  0  0  0  0  0  0  0  0  0  0  0
  -22.7239   -4.3030  -26.8034 C   0  0  0  0  0  0  0  0  0  0  0  0
  -21.1216   -4.9843  -32.7832 C   0  0  0  0  0  0  0  0  0  0  0  0
  -19.2428   -5.0779  -25.7995 C   0  0  0  0  0  0  0  0  0  0  0  0
  -21.3774   -4.5195  -27.1310 C   0  0  0  0  0  0  0  0  0  0  0  0
  -23.2269   -3.7648  -29.0807 C   0  0  0  0  0  0  0  0  0  0  0  0
  -21.8905   -3.9993  -29.4224 C   0  0  0  0  0  0  0  0  0  0  0  0
  -17.0180   -4.2381  -25.7657 C   0  0  0  0  0  0  0  0  0  0  0  0
  -23.0731   -3.1530  -24.6076 C   0  0  0  0  0  0  0  0  0  0  0  0
  -24.1553   -5.4004  -25.0126 C   0  0  0  0  0  0  0  0  0  0  0  0
  -21.5999   -5.2323  -24.9563 C   0  0  0  0  0  0  0  0  0  0  0  0
  -23.3724   -3.2850  -23.1177 C   0  0  0  0  0  0  0  0  0  0  0  0
  -24.4027   -5.5380  -23.5160 C   0  0  0  0  0  0  0  0  0  0  0  0
  -22.9374   -4.5132  -25.3241 C   0  0  0  0  0  0  0  0  0  0  0  0
  -24.9726   -4.2416  -21.4649 C   0  0  0  0  0  0  0  0  0  0  0  0
  -24.2811   -1.9881  -30.2588 C   0  0  0  0  0  0  0  0  0  0  0  0
  -14.7617   -3.4889  -25.7049 C   0  0  0  0  0  0  0  0  0  0  0  0
  -22.1044   -4.6853  -31.6895 C   0  0  0  0  0  0  0  0  0  0  0  0
  -16.5006   -5.4276  -25.3848 N   0  0  0  0  0  0  0  0  0  0  0  0
  -20.6146   -4.9031  -26.0047 N   0  0  0  0  0  0  0  0  0  0  0  0
  -24.5803   -4.1650  -22.9151 N   0  3  0  0  0  0  0  0  0  0  0  0
  -24.1260   -3.3875  -30.0330 O   0  0  0  0  0  0  0  0  0  0  0  0
  -21.4772   -3.8560  -30.7143 O   0  0  0  0  0  0  0  0  0  0  0  0
  -16.1352   -3.2048  -25.9422 O   0  0  0  0  0  0  0  0  0  0  0  0
  -18.5819   -5.7554  -35.6077 H   0  0  0  0  0  0  0  0  0  0  0  0
  -20.3540   -7.3997  -35.0499 H   0  0  0  0  0  0  0  0  0  0  0  0
  -18.4355   -3.6173  -34.3568 H   0  0  0  0  0  0  0  0  0  0  0  0
  -21.9770   -6.9124  -33.2491 H   0  0  0  0  0  0  0  0  0  0  0  0
  -20.0536   -3.1207  -32.5544 H   0  0  0  0  0  0  0  0  0  0  0  0
  -19.4037   -7.1682  -25.2547 H   0  0  0  0  0  0  0  0  0  0  0  0
  -24.6874   -3.7311  -27.4940 H   0  0  0  0  0  0  0  0  0  0  0  0
  -19.9261   -4.5578  -28.7262 H   0  0  0  0  0  0  0  0  0  0  0  0
  -18.7280   -3.0365  -26.2914 H   0  0  0  0  0  0  0  0  0  0  0  0
  -16.9455   -7.3843  -24.9107 H   0  0  0  0  0  0  0  0  0  0  0  0
  -23.8799   -2.5695  -25.0725 H   0  0  0  0  0  0  0  0  0  0  0  0
  -22.1608   -2.5558  -24.7351 H   0  0  0  0  0  0  0  0  0  0  0  0
  -24.0297   -6.3978  -25.4529 H   0  0  0  0  0  0  0  0  0  0  0  0
  -25.0588   -4.9825  -25.4761 H   0  0  0  0  0  0  0  0  0  0  0  0
  -21.2241   -4.9401  -23.9697 H   0  0  0  0  0  0  0  0  0  0  0  0
  -21.7395   -6.3225  -24.9419 H   0  0  0  0  0  0  0  0  0  0  0  0
  -22.5402   -3.7294  -22.5623 H   0  0  0  0  0  0  0  0  0  0  0  0
  -23.6062   -2.3049  -22.6886 H   0  0  0  0  0  0  0  0  0  0  0  0
  -25.3254   -6.0982  -23.3315 H   0  0  0  0  0  0  0  0  0  0  0  0
  -23.5705   -6.0266  -22.9980 H   0  0  0  0  0  0  0  0  0  0  0  0
  -24.1519   -4.7134  -20.9215 H   0  0  0  0  0  0  0  0  0  0  0  0
  -25.1438   -3.2232  -21.1108 H   0  0  0  0  0  0  0  0  0  0  0  0
  -25.8835   -4.8394  -21.3963 H   0  0  0  0  0  0  0  0  0  0  0  0
  -25.0263   -1.8250  -31.0412 H   0  0  0  0  0  0  0  0  0  0  0  0
  -23.3222   -1.5581  -30.5587 H   0  0  0  0  0  0  0  0  0  0  0  0
  -24.6175   -1.5139  -29.3338 H   0  0  0  0  0  0  0  0  0  0  0  0
  -14.1673   -2.5887  -25.8791 H   0  0  0  0  0  0  0  0  0  0  0  0
  -14.4337   -4.2898  -26.3723 H   0  0  0  0  0  0  0  0  0  0  0  0
  -14.6389   -3.8087  -24.6674 H   0  0  0  0  0  0  0  0  0  0  0  0
  -22.9853   -4.1682  -32.0849 H   0  0  0  0  0  0  0  0  0  0  0  0
  -22.4440   -5.6097  -31.2100 H   0  0  0  0  0  0  0  0  0  0  0  0
  -25.3678   -3.7179  -23.4045 H   0  0  0  0  0  0  0  0  0  0  0  0
  1  2  2  0  0  0  0
  1  3  1  0  0  0  0
  2  4  1  0  0  0  0
  3  5  2  0  0  0  0
  4 12  2  0  0  0  0
  5 12  1  0  0  0  0
  6 10  1  0  0  0  0
  6 13  2  0  0  0  0
  7 11  2  0  0  0  0
  7 15  1  0  0  0  0
  8 14  2  0  0  0  0
  8 16  1  0  0  0  0
  9 13  1  0  0  0  0
  9 17  2  0  0  0  0
 10 28  2  0  0  0  0
 11 14  1  0  0  0  0
 11 23  1  0  0  0  0
 12 27  1  0  0  0  0
 13 29  1  0  0  0  0
 14 29  1  0  0  0  0
 15 16  2  0  0  0  0
 15 31  1  0  0  0  0
 16 32  1  0  0  0  0
 17 28  1  0  0  0  0
 17 33  1  0  0  0  0
 18 21  1  0  0  0  0
 18 23  1  0  0  0  0
 19 22  1  0  0  0  0
 19 23  1  0  0  0  0
 20 23  1  0  0  0  0
 20 29  1  0  0  0  0
 21 30  1  0  0  0  0
 22 30  1  0  0  0  0
 24 30  1  0  0  0  0
 25 31  1  0  0  0  0
 26 33  1  0  0  0  0
 27 32  1  0  0  0  0
  1 34  1  0  0  0  0
  2 35  1  0  0  0  0
  3 36  1  0  0  0  0
  4 37  1  0  0  0  0
  5 38  1  0  0  0  0
  6 39  1  0  0  0  0
  7 40  1  0  0  0  0
  8 41  1  0  0  0  0
  9 42  1  0  0  0  0
 10 43  1  0  0  0  0
 18 44  1  0  0  0  0
 18 45  1  0  0  0  0
 19 46  1  0  0  0  0
 19 47  1  0  0  0  0
 20 48  1  0  0  0  0
 20 49  1  0  0  0  0
 21 50  1  0  0  0  0
 21 51  1  0  0  0  0
 22 52  1  0  0  0  0
 22 53  1  0  0  0  0
 24 54  1  0  0  0  0
 24 55  1  0  0  0  0
 24 56  1  0  0  0  0
 25 57  1  0  0  0  0
 25 58  1  0  0  0  0
 25 59  1  0  0  0  0
 26 60  1  0  0  0  0
 26 61  1  0  0  0  0
 26 62  1  0  0  0  0
 27 63  1  0  0  0  0
 27 64  1  0  0  0  0
 30 65  1  0  0  0  0
M  CHG  1  30   1
M  END
> <SMILES>
COc1cc(ccn1)N1CC2(CCN(C)CC2)c2cc(c(cc21)OCc1ccccc1)OC

> <FORMATTED_ID>
H3D-009400

> <MOLFORMULA>
C27H31N3O3

> <Exact Mass>
445.24

> <XLogP>
5.26

> <TPSA_NOPS>
47.1

> <s_m_source_file>
ligprep_h3d.sdf

> <i_m_source_file_index>
5052

> <i_lp_mmshare_version>
55123

> <i_f3d_flags>
0

> <s_epik_input>
W0NIMl0xW0NIMl1OKFtDSDNdKVtDSDJdW0NIMl1DMTJjM2MoTihbQ0gyXTIpYyhbY0hdW2NIXW40KVtjSF1jNE9bQ0gzXSlbY0hdYyhjKFtjSF0zKU9bQ0gzXSlPW0NIMl1jNVtjSF1bY0hdW2NIXVtjSF1bY0hdNQ==

> <s_epik_cmdline>
J2VwaWtfcHl0aG9uJywgJy1waHQnLCAnMC41JywgJy1waCcsICc3LjUnLCAnLXRuJywgJzgnLCAnLW1hJywgJzUwMCcsICctaW1hZScsICc8aW5maWxlLm1hZT4nLCAnLW9tYWUnLCAnPG91dGZpbGUubWFlPic=

> <r_lp_tautomer_probability>
1

> <r_epik_Ionization_Penalty>
0.00802871

> <r_epik_Ionization_Penalty_Charging>
0.00689193

> <r_epik_Ionization_Penalty_Neutral>
0.00113677

> <r_epik_State_Penalty>
-0

> <r_epik_Charging_Adjusted_Penalty>
0.00689193

> <i_epik_Tot_Q>
1

> <i_epik_Tot_abs_Q>
1

> <s_lp_Force_Field>
S-OPLS

> <r_lp_Energy>
69.5363

> <b_lp_Chiralities_Consistent>
1

> <s_lp_Variant>
ligprep_h3d.sdf:5052-1

> <ROCS_ShapeQuery>
_7L13

> <ROCS_TanimotoCombo>
0.768 

> <ROCS_ShapeTanimoto>
0.666 

> <ROCS_ColorTanimoto>
0.103 

> <ROCS_RefTversky>
0.767 

> <ROCS_RefColorTversky>
0.205 

> <ROCS_RefTverskyCombo>
0.972 

> <ROCS_FitTversky>
0.834 

> <ROCS_FitColorTversky>
0.171 

> <ROCS_FitTverskyCombo>
1.005 

> <ROCS_ColorScore>
-1.864

> <ROCS_Overlap>
1267.863

> <ROCS_Rank>
585                 

$$$$
ligprep_h3d.sdf:786_1672
  -OEChem-08212117123D

 63 67  0     0  0  0  0  0  0999 V2000
  -16.6168   -4.7884  -26.6021 C   0  0  0  0  0  0  0  0  0  0  0  0
  -23.0831   -4.3036  -28.7696 C   0  0  0  0  0  0  0  0  0  0  0  0
  -20.7292   -4.4630  -25.3485 C   0  0  0  0  0  0  0  0  0  0  0  0
  -17.0404   -6.1249  -26.4748 C   0  0  0  0  0  0  0  0  0  0  0  0
  -19.4908   -7.1784  -37.3353 C   0  0  0  0  0  0  0  0  0  0  0  0
  -19.8295   -8.2011  -36.4949 C   0  0  0  0  0  0  0  0  0  0  0  0
  -20.9341   -4.6480  -27.7504 C   0  0  0  0  0  0  0  0  0  0  0  0
  -22.5328   -4.5359  -30.0326 C   0  0  0  0  0  0  0  0  0  0  0  0
  -20.3804   -4.8815  -29.0206 C   0  0  0  0  0  0  0  0  0  0  0  0
  -22.3071   -4.3538  -27.6149 C   0  0  0  0  0  0  0  0  0  0  0  0
  -20.1525   -4.6983  -26.5883 C   0  0  0  0  0  0  0  0  0  0  0  0
  -21.1798   -4.8252  -30.1586 C   0  0  0  0  0  0  0  0  0  0  0  0
  -22.0802   -4.1831  -25.3161 C   0  0  0  0  0  0  0  0  0  0  0  0
  -17.7817   -4.0633  -26.6625 C   0  0  0  0  0  0  0  0  0  0  0  0
  -19.5018   -6.3882  -35.2675 C   0  0  0  0  0  0  0  0  0  0  0  0
  -22.7464   -3.9278  -24.0503 C   0  0  0  0  0  0  0  0  0  0  0  0
  -18.8984   -6.1437  -32.7933 C   0  0  0  0  0  0  0  0  0  0  0  0
  -20.7015   -4.6835  -33.8536 C   0  0  0  0  0  0  0  0  0  0  0  0
  -19.9964   -6.3346  -31.7438 C   0  0  0  0  0  0  0  0  0  0  0  0
  -20.7392   -4.0368  -32.4701 C   0  0  0  0  0  0  0  0  0  0  0  0
  -19.3887   -5.4490  -34.0791 C   0  0  0  0  0  0  0  0  0  0  0  0
  -23.4268   -4.4670  -31.2283 C   0  0  0  0  0  0  0  0  0  0  0  0
  -18.9300   -5.2007  -29.2444 C   0  0  0  0  0  0  0  0  0  0  0  0
  -18.0016   -2.6098  -26.7965 C   0  0  0  0  0  0  0  0  0  0  0  0
  -24.9030   -4.0697  -22.7778 C   0  0  0  0  0  0  0  0  0  0  0  0
  -18.3706   -6.2445  -26.4552 N   0  0  0  0  0  0  0  0  0  0  0  0
  -22.8696   -4.1249  -26.4131 N   0  0  0  0  0  0  0  0  0  0  0  0
  -19.2942   -6.0687  -36.5490 N   0  0  0  0  0  0  0  0  0  0  0  0
  -18.7928   -4.9739  -26.5709 N   0  0  0  0  0  0  0  0  0  0  0  0
  -19.8284   -7.6838  -35.2219 N   0  3  0  0  0  0  0  0  0  0  0  0
  -20.6373   -5.0561  -31.4215 N   0  0  0  0  0  0  0  0  0  0  0  0
  -24.0983   -4.2815  -23.9595 N   0  0  0  0  0  0  0  0  0  0  0  0
  -22.1312   -3.3982  -23.1071 O   0  0  0  0  0  0  0  0  0  0  0  0
  -15.6072   -4.4065  -26.6436 H   0  0  0  0  0  0  0  0  0  0  0  0
  -24.1454   -4.0765  -28.6865 H   0  0  0  0  0  0  0  0  0  0  0  0
  -20.1458   -4.4949  -24.4326 H   0  0  0  0  0  0  0  0  0  0  0  0
  -16.4352   -7.0165  -26.3953 H   0  0  0  0  0  0  0  0  0  0  0  0
  -19.3573   -7.0678  -38.3930 H   0  0  0  0  0  0  0  0  0  0  0  0
  -20.0758   -9.2378  -36.6103 H   0  0  0  0  0  0  0  0  0  0  0  0
  -18.0706   -5.5574  -32.3519 H   0  0  0  0  0  0  0  0  0  0  0  0
  -18.4520   -7.1246  -33.0485 H   0  0  0  0  0  0  0  0  0  0  0  0
  -21.5541   -5.3654  -33.9693 H   0  0  0  0  0  0  0  0  0  0  0  0
  -20.8175   -3.9111  -34.6234 H   0  0  0  0  0  0  0  0  0  0  0  0
  -20.7354   -7.0519  -32.1346 H   0  0  0  0  0  0  0  0  0  0  0  0
  -19.5682   -6.7792  -30.8308 H   0  0  0  0  0  0  0  0  0  0  0  0
  -19.9131   -3.3154  -32.3703 H   0  0  0  0  0  0  0  0  0  0  0  0
  -21.6774   -3.4703  -32.3700 H   0  0  0  0  0  0  0  0  0  0  0  0
  -18.6154   -4.7372  -34.4308 H   0  0  0  0  0  0  0  0  0  0  0  0
  -23.4488   -3.4464  -31.6266 H   0  0  0  0  0  0  0  0  0  0  0  0
  -23.0825   -5.1445  -32.0189 H   0  0  0  0  0  0  0  0  0  0  0  0
  -24.4509   -4.7661  -30.9739 H   0  0  0  0  0  0  0  0  0  0  0  0
  -18.7773   -6.2825  -29.2052 H   0  0  0  0  0  0  0  0  0  0  0  0
  -18.5966   -4.8287  -30.2177 H   0  0  0  0  0  0  0  0  0  0  0  0
  -18.3059   -4.7247  -28.4822 H   0  0  0  0  0  0  0  0  0  0  0  0
  -18.0671   -2.3140  -27.8563 H   0  0  0  0  0  0  0  0  0  0  0  0
  -18.9315   -2.2845  -26.2997 H   0  0  0  0  0  0  0  0  0  0  0  0
  -17.1884   -2.0240  -26.3345 H   0  0  0  0  0  0  0  0  0  0  0  0
  -24.8974   -4.9809  -22.1616 H   0  0  0  0  0  0  0  0  0  0  0  0
  -24.4887   -3.2322  -22.1974 H   0  0  0  0  0  0  0  0  0  0  0  0
  -25.9357   -3.8346  -23.0749 H   0  0  0  0  0  0  0  0  0  0  0  0
  -19.0319   -5.1474  -36.8885 H   0  0  0  0  0  0  0  0  0  0  0  0
  -20.0430   -8.2049  -34.3760 H   0  0  0  0  0  0  0  0  0  0  0  0
  -24.5694   -4.6522  -24.7784 H   0  0  0  0  0  0  0  0  0  0  0  0
  1  4  1  0  0  0  0
  1 14  2  0  0  0  0
  2  8  2  0  0  0  0
  2 10  1  0  0  0  0
  3 11  1  0  0  0  0
  3 13  2  0  0  0  0
  4 26  2  0  0  0  0
  5  6  2  0  0  0  0
  5 28  1  0  0  0  0
  6 30  1  0  0  0  0
  7  9  1  0  0  0  0
  7 10  1  0  0  0  0
  7 11  2  0  0  0  0
  8 12  1  0  0  0  0
  8 22  1  0  0  0  0
  9 12  2  0  0  0  0
  9 23  1  0  0  0  0
 10 27  2  0  0  0  0
 11 29  1  0  0  0  0
 12 31  1  0  0  0  0
 13 16  1  0  0  0  0
 13 27  1  0  0  0  0
 14 24  1  0  0  0  0
 14 29  1  0  0  0  0
 15 21  1  0  0  0  0
 15 28  1  0  0  0  0
 15 30  2  0  0  0  0
 16 32  1  0  0  0  0
 16 33  2  0  0  0  0
 17 19  1  0  0  0  0
 17 21  1  0  0  0  0
 18 20  1  0  0  0  0
 18 21  1  0  0  0  0
 19 31  1  0  0  0  0
 20 31  1  0  0  0  0
 25 32  1  0  0  0  0
 26 29  1  0  0  0  0
  1 34  1  0  0  0  0
  2 35  1  0  0  0  0
  3 36  1  0  0  0  0
  4 37  1  0  0  0  0
  5 38  1  0  0  0  0
  6 39  1  0  0  0  0
 17 40  1  0  0  0  0
 17 41  1  0  0  0  0
 18 42  1  0  0  0  0
 18 43  1  0  0  0  0
 19 44  1  0  0  0  0
 19 45  1  0  0  0  0
 20 46  1  0  0  0  0
 20 47  1  0  0  0  0
 21 48  1  0  0  0  0
 22 49  1  0  0  0  0
 22 50  1  0  0  0  0
 22 51  1  0  0  0  0
 23 52  1  0  0  0  0
 23 53  1  0  0  0  0
 23 54  1  0  0  0  0
 24 55  1  0  0  0  0
 24 56  1  0  0  0  0
 24 57  1  0  0  0  0
 25 58  1  0  0  0  0
 25 59  1  0  0  0  0
 25 60  1  0  0  0  0
 28 61  1  0  0  0  0
 30 62  1  0  0  0  0
 32 63  1  0  0  0  0
M  CHG  1  30   1
M  END
> <SMILES>
CNC(=O)c1cc(c2c(c(c(cc2n1)C)N1CCC(CC1)c1ncc[nH]1)C)-n1nccc1C

> <FORMATTED_ID>
H3D-005327

> <MOLFORMULA>
C25H29N7O

> <Exact Mass>
443.24

> <XLogP>
3.44

> <TPSA_NOPS>
91.7

> <s_m_source_file>
ligprep_h3d.sdf

> <i_m_source_file_index>
786

> <i_lp_mmshare_version>
55123

> <i_f3d_flags>
0

> <s_epik_input>
W0NIM11jMVtjSF1bY0hdbm4xLWMyW2NIXWMoQyg9TylbTkhdW0NIM10pbmMoYzIzKVtjSF1jKFtDSDNdKWMoYzNbQ0gzXSlONFtDSDJdW0NIMl1bQ0hdKFtDSDJdW0NIMl00KWM1bltjSF1bY0hdW25IXTU=

> <s_epik_cmdline>
J2VwaWtfcHl0aG9uJywgJy1waHQnLCAnMC41JywgJy1waCcsICc3LjUnLCAnLXRuJywgJzgnLCAnLW1hJywgJzUwMCcsICctaW1hZScsICc8aW5maWxlLm1hZT4nLCAnLW9tYWUnLCAnPG91dGZpbGUubWFlPic=

> <r_lp_tautomer_probability>
1

> <r_epik_Ionization_Penalty>
0.147303

> <r_epik_Ionization_Penalty_Charging>
0

> <r_epik_Ionization_Penalty_Neutral>
0.147303

> <r_epik_State_Penalty>
0.13655

> <r_epik_Charging_Adjusted_Penalty>
0.13655

> <i_epik_Tot_Q>
1

> <i_epik_Tot_abs_Q>
1

> <s_lp_Force_Field>
S-OPLS

> <r_lp_Energy>
66.4259

> <b_lp_Chiralities_Consistent>
1

> <s_lp_Variant>
ligprep_h3d.sdf:786-1

> <ROCS_ShapeQuery>
_7L13

> <ROCS_TanimotoCombo>
0.761 

> <ROCS_ShapeTanimoto>
0.654 

> <ROCS_ColorTanimoto>
0.106 

> <ROCS_RefTversky>
0.767 

> <ROCS_RefColorTversky>
0.221 

> <ROCS_RefTverskyCombo>
0.988 

> <ROCS_FitTversky>
0.817 

> <ROCS_FitColorTversky>
0.170 

> <ROCS_FitTverskyCombo>
0.987 

> <ROCS_ColorScore>
-2.022

> <ROCS_Overlap>
1269.248

> <ROCS_Rank>
586                 

$$$$
ligprep_h3d.sdf:3370_10
  -OEChem-08212117123D

 42 44  0     0  0  0  0  0  0999 V2000
  -20.2457   -4.3214  -34.0411 C   0  0  0  0  0  0  0  0  0  0  0  0
  -19.5598   -4.9888  -35.0499 C   0  0  0  0  0  0  0  0  0  0  0  0
  -21.3190   -4.6323  -30.6950 C   0  0  0  0  0  0  0  0  0  0  0  0
  -20.3644   -4.5544  -27.9279 C   0  0  0  0  0  0  0  0  0  0  0  0
  -22.6612   -4.1443  -27.3010 C   0  0  0  0  0  0  0  0  0  0  0  0
  -21.0271   -4.6949  -25.6088 C   0  0  0  0  0  0  0  0  0  0  0  0
  -23.0316   -3.1270  -30.0185 C   0  0  0  0  0  0  0  0  0  0  0  0
  -20.9181   -6.4315  -33.1738 C   0  0  0  0  0  0  0  0  0  0  0  0
  -20.9403   -5.0492  -33.0813 C   0  0  0  0  0  0  0  0  0  0  0  0
  -22.0104   -3.9962  -29.6700 C   0  0  0  0  0  0  0  0  0  0  0  0
  -21.6649   -4.3831  -32.0185 C   0  0  0  0  0  0  0  0  0  0  0  0
  -21.6747   -4.2342  -28.2830 C   0  0  0  0  0  0  0  0  0  0  0  0
  -20.0406   -4.7848  -26.5908 C   0  0  0  0  0  0  0  0  0  0  0  0
  -22.3375   -4.3747  -25.9639 C   0  0  0  0  0  0  0  0  0  0  0  0
  -22.7016   -3.4967  -32.2618 C   0  0  0  0  0  0  0  0  0  0  0  0
  -19.5993   -6.3738  -35.0541 C   0  0  0  0  0  0  0  0  0  0  0  0
  -19.0035   -8.4743  -35.9968 C   0  0  0  0  0  0  0  0  0  0  0  0
  -18.6399   -5.1291  -26.2114 C   0  0  0  0  0  0  0  0  0  0  0  0
  -23.3927   -4.2807  -24.9142 C   0  0  0  0  0  0  0  0  0  0  0  0
  -23.3963   -2.8598  -31.2925 N   0  0  0  0  0  0  0  0  0  0  0  0
  -20.2631   -7.1150  -34.1390 N   0  0  0  0  0  0  0  0  0  0  0  0
  -23.0668   -3.2319  -33.6062 N   0  0  0  0  0  0  0  0  0  0  0  0
  -18.9310   -7.0542  -36.0382 O   0  0  0  0  0  0  0  0  0  0  0  0
  -17.7826   -5.1836  -27.2734 F   0  0  0  0  0  0  0  0  0  0  0  0
  -18.0744   -4.2396  -25.3427 F   0  0  0  0  0  0  0  0  0  0  0  0
  -18.5452   -6.3467  -25.6018 F   0  0  0  0  0  0  0  0  0  0  0  0
  -24.6268   -3.9620  -25.4054 F   0  0  0  0  0  0  0  0  0  0  0  0
  -23.5758   -5.4413  -24.2175 F   0  0  0  0  0  0  0  0  0  0  0  0
  -23.1160   -3.3297  -23.9750 F   0  0  0  0  0  0  0  0  0  0  0  0
  -20.2299   -3.2348  -34.0163 H   0  0  0  0  0  0  0  0  0  0  0  0
  -19.0138   -4.4356  -35.8062 H   0  0  0  0  0  0  0  0  0  0  0  0
  -20.5103   -5.3222  -30.4602 H   0  0  0  0  0  0  0  0  0  0  0  0
  -19.5905   -4.6268  -28.6895 H   0  0  0  0  0  0  0  0  0  0  0  0
  -23.6849   -3.8929  -27.5708 H   0  0  0  0  0  0  0  0  0  0  0  0
  -20.7746   -4.8734  -24.5662 H   0  0  0  0  0  0  0  0  0  0  0  0
  -23.6098   -2.5989  -29.2656 H   0  0  0  0  0  0  0  0  0  0  0  0
  -21.4402   -7.0568  -32.4557 H   0  0  0  0  0  0  0  0  0  0  0  0
  -18.4333   -8.8934  -36.8295 H   0  0  0  0  0  0  0  0  0  0  0  0
  -20.0482   -8.7887  -36.0618 H   0  0  0  0  0  0  0  0  0  0  0  0
  -18.5776   -8.8246  -35.0536 H   0  0  0  0  0  0  0  0  0  0  0  0
  -22.5389   -3.6525  -34.3390 H   0  0  0  0  0  0  0  0  0  0  0  0
  -23.7798   -2.5598  -33.7864 H   0  0  0  0  0  0  0  0  0  0  0  0
  1  2  1  0  0  0  0
  1  9  2  0  0  0  0
  2 16  2  0  0  0  0
  3 10  1  0  0  0  0
  3 11  2  0  0  0  0
  4 12  2  0  0  0  0
  4 13  1  0  0  0  0
  5 12  1  0  0  0  0
  5 14  2  0  0  0  0
  6 13  2  0  0  0  0
  6 14  1  0  0  0  0
  7 10  2  0  0  0  0
  7 20  1  0  0  0  0
  8  9  1  0  0  0  0
  8 21  2  0  0  0  0
  9 11  1  0  0  0  0
 10 12  1  0  0  0  0
 11 15  1  0  0  0  0
 13 18  1  0  0  0  0
 14 19  1  0  0  0  0
 15 20  2  0  0  0  0
 15 22  1  0  0  0  0
 16 21  1  0  0  0  0
 16 23  1  0  0  0  0
 17 23  1  0  0  0  0
 18 24  1  0  0  0  0
 18 25  1  0  0  0  0
 18 26  1  0  0  0  0
 19 27  1  0  0  0  0
 19 28  1  0  0  0  0
 19 29  1  0  0  0  0
  1 30  1  0  0  0  0
  2 31  1  0  0  0  0
  3 32  1  0  0  0  0
  4 33  1  0  0  0  0
  5 34  1  0  0  0  0
  6 35  1  0  0  0  0
  7 36  1  0  0  0  0
  8 37  1  0  0  0  0
 17 38  1  0  0  0  0
 17 39  1  0  0  0  0
 17 40  1  0  0  0  0
 22 41  1  0  0  0  0
 22 42  1  0  0  0  0
M  END
> <SMILES>
COc1ccc(cn1)-c1cc(cnc1N)-c1cc(cc(c1)C(F)(F)F)C(F)(F)F

> <FORMATTED_ID>
H3D-001403

> <MOLFORMULA>
C19H13F6N3O

> <Exact Mass>
413.1

> <XLogP>
5.18

> <TPSA_NOPS>
61

> <s_m_source_file>
ligprep_h3d.sdf

> <i_m_source_file_index>
3370

> <i_lp_mmshare_version>
55123

> <i_f3d_flags>
0

> <s_epik_input>
W0NIM11PYzFbY0hdW2NIXWMoW2NIXW4xKS1jMltjSF1jKFtjSF1uYzJbTkgyXSktYzNbY0hdYyhDKEYpKEYpRilbY0hdYyhbY0hdMylDKEYpKEYpRg==

> <s_epik_cmdline>
J2VwaWtfcHl0aG9uJywgJy1waHQnLCAnMC41JywgJy1waCcsICc3LjUnLCAnLXRuJywgJzgnLCAnLW1hJywgJzUwMCcsICctaW1hZScsICc8aW5maWxlLm1hZT4nLCAnLW9tYWUnLCAnPG91dGZpbGUubWFlPic=

> <r_lp_tautomer_probability>
1

> <r_epik_Ionization_Penalty>
0.0206369

> <r_epik_Ionization_Penalty_Charging>
0

> <r_epik_Ionization_Penalty_Neutral>
0.0206369

> <r_epik_State_Penalty>
0.0165332

> <r_epik_Charging_Adjusted_Penalty>
0.0165332

> <i_epik_Tot_Q>
0

> <i_epik_Tot_abs_Q>
0

> <s_lp_Force_Field>
S-OPLS

> <r_lp_Energy>
38.4115

> <b_lp_Chiralities_Consistent>
1

> <s_lp_Variant>
ligprep_h3d.sdf:3370-1

> <ROCS_ShapeQuery>
_7L13

> <ROCS_TanimotoCombo>
0.854 

> <ROCS_ShapeTanimoto>
0.722 

> <ROCS_ColorTanimoto>
0.133 

> <ROCS_RefTversky>
0.767 

> <ROCS_RefColorTversky>
0.222 

> <ROCS_RefTverskyCombo>
0.989 

> <ROCS_FitTversky>
0.924 

> <ROCS_FitColorTversky>
0.247 

> <ROCS_FitTverskyCombo>
1.171 

> <ROCS_ColorScore>
-1.991

> <ROCS_Overlap>
1261.521

> <ROCS_Rank>
587                 

$$$$
ligprep_h3d.sdf:511_37
  -OEChem-08212117123D

 57 62  0     1  0  0  0  0  0999 V2000
  -19.2739   -5.8093  -35.6038 C   0  0  0  0  0  0  0  0  0  0  0  0
  -21.0083   -5.1819  -29.4915 C   0  0  0  0  0  0  0  0  0  0  0  0
  -21.7578   -4.4042  -30.3768 C   0  0  0  0  0  0  0  0  0  0  0  0
  -21.1179   -4.9287  -28.1030 C   0  0  0  0  0  0  0  0  0  0  0  0
  -21.9873   -3.9448  -27.5753 C   0  0  0  0  0  0  0  0  0  0  0  0
  -22.5770   -3.4253  -29.8587 C   0  0  0  0  0  0  0  0  0  0  0  0
  -22.7205   -3.1604  -28.4965 C   0  0  0  0  0  0  0  0  0  0  0  0
  -21.9474   -4.2987  -31.7673 C   0  0  0  0  0  0  0  0  0  0  0  0
  -18.9023   -3.8774  -26.2319 C   0  0  0  0  0  0  0  0  0  0  0  0
  -19.2802   -6.0731  -24.9920 C   0  0  0  0  0  0  0  0  0  0  0  0
  -17.0835   -5.2554  -25.8152 C   0  0  0  0  0  0  0  0  0  0  0  0
  -20.2851   -5.7705  -27.1736 C   0  0  0  0  0  0  0  0  0  0  0  0
  -20.7505   -6.9880  -33.9861 C   0  0  0  0  0  0  0  0  0  0  0  0
  -21.4108   -6.5747  -32.6724 C   0  0  0  0  0  0  0  0  0  0  0  0
  -20.3945   -4.6392  -33.7093 C   0  0  0  0  0  0  0  0  0  0  0  0
  -23.0356   -2.7742  -25.6482 C   0  0  0  0  0  0  0  0  0  0  0  0
  -19.6952   -5.9092  -34.2046 C   0  0  2  0  0  0  0  0  0  0  0  0
  -21.2163   -4.4714  -25.2273 C   0  0  2  0  0  0  0  0  0  0  0  0
  -23.4120   -3.0769  -24.1949 C   0  0  1  0  0  0  0  0  0  0  0  0
  -21.0430   -3.5314  -23.9981 C   0  0  2  0  0  0  0  0  0  0  0  0
  -19.9007   -5.0060  -25.8828 C   0  0  2  0  0  0  0  0  0  0  0  0
  -24.4163   -4.2215  -24.0745 C   0  0  0  0  0  0  0  0  0  0  0  0
  -20.0920   -4.0114  -22.9090 C   0  0  0  0  0  0  0  0  0  0  0  0
  -18.9401   -5.7301  -36.7121 N   0  0  0  0  0  0  0  0  0  0  0  0
  -22.8119   -3.3318  -32.0891 N   0  0  0  0  0  0  0  0  0  0  0  0
  -17.6465   -4.2499  -26.4862 N   0  5  0  0  0  0  0  0  0  0  0  0
  -17.9006   -6.0840  -25.0483 N   0  0  0  0  0  0  0  0  0  0  0  0
  -22.0938   -3.7592  -26.1948 N   0  0  3  0  0  0  0  0  0  0  0  0
  -21.2901   -5.1196  -32.6589 N   0  0  0  0  0  0  0  0  0  0  0  0
  -19.2907   -2.7184  -26.3763 O   0  0  0  0  0  0  0  0  0  0  0  0
  -19.9301   -6.8940  -24.3484 O   0  0  0  0  0  0  0  0  0  0  0  0
  -15.8738   -5.4954  -25.8589 O   0  0  0  0  0  0  0  0  0  0  0  0
  -23.2077   -2.7785  -30.8769 O   0  0  0  0  0  0  0  0  0  0  0  0
  -22.3053   -3.3542  -23.3418 O   0  0  0  0  0  0  0  0  0  0  0  0
  -23.4678   -2.1101  -28.1363 F   0  0  0  0  0  0  0  0  0  0  0  0
  -20.3464   -5.9598  -29.8613 H   0  0  0  0  0  0  0  0  0  0  0  0
  -20.8638   -6.6730  -26.9339 H   0  0  0  0  0  0  0  0  0  0  0  0
  -19.3801   -6.1111  -27.6939 H   0  0  0  0  0  0  0  0  0  0  0  0
  -20.3150   -7.9910  -33.9304 H   0  0  0  0  0  0  0  0  0  0  0  0
  -21.4934   -6.9880  -34.7943 H   0  0  0  0  0  0  0  0  0  0  0  0
  -22.4548   -6.9056  -32.6319 H   0  0  0  0  0  0  0  0  0  0  0  0
  -20.8718   -6.9972  -31.8159 H   0  0  0  0  0  0  0  0  0  0  0  0
  -19.6687   -3.9124  -33.3243 H   0  0  0  0  0  0  0  0  0  0  0  0
  -20.9817   -4.1549  -34.5005 H   0  0  0  0  0  0  0  0  0  0  0  0
  -23.9468   -2.8040  -26.2804 H   0  0  0  0  0  0  0  0  0  0  0  0
  -22.7046   -1.7250  -25.6948 H   0  0  0  0  0  0  0  0  0  0  0  0
  -18.8263   -6.1173  -33.5674 H   0  0  0  0  0  0  0  0  0  0  0  0
  -21.8071   -5.3385  -24.8907 H   0  0  0  0  0  0  0  0  0  0  0  0
  -23.9439   -2.1595  -23.7631 H   0  0  0  0  0  0  0  0  0  0  0  0
  -20.6939   -2.5312  -24.3121 H   0  0  0  0  0  0  0  0  0  0  0  0
  -23.9828   -5.1411  -24.4680 H   0  0  0  0  0  0  0  0  0  0  0  0
  -25.3190   -3.9867  -24.6387 H   0  0  0  0  0  0  0  0  0  0  0  0
  -24.6828   -4.3755  -23.0287 H   0  0  0  0  0  0  0  0  0  0  0  0
  -20.3921   -4.9999  -22.5610 H   0  0  0  0  0  0  0  0  0  0  0  0
  -20.1100   -3.3195  -22.0669 H   0  0  0  0  0  0  0  0  0  0  0  0
  -19.0758   -4.0672  -23.2994 H   0  0  0  0  0  0  0  0  0  0  0  0
  -17.4298   -6.7711  -24.4673 H   0  0  0  0  0  0  0  0  0  0  0  0
  1 17  1  0  0  0  0
  1 24  3  0  0  0  0
  2  3  2  0  0  0  0
  2  4  1  0  0  0  0
  3  6  1  0  0  0  0
  3  8  1  0  0  0  0
  4  5  2  0  0  0  0
  4 12  1  0  0  0  0
  5  7  1  0  0  0  0
  5 28  1  0  0  0  0
  6  7  2  0  0  0  0
  6 33  1  0  0  0  0
  7 35  1  0  0  0  0
  8 25  2  0  0  0  0
  8 29  1  0  0  0  0
  9 21  1  0  0  0  0
  9 26  1  0  0  0  0
  9 30  2  0  0  0  0
 10 21  1  0  0  0  0
 10 27  1  0  0  0  0
 10 31  2  0  0  0  0
 11 26  1  0  0  0  0
 11 27  1  0  0  0  0
 11 32  2  0  0  0  0
 12 21  1  0  0  0  0
 13 14  1  0  0  0  0
 13 17  1  0  0  0  0
 14 29  1  0  0  0  0
 15 17  1  0  0  0  0
 15 29  1  0  0  0  0
 16 19  1  0  0  0  0
 16 28  1  0  0  0  0
 18 20  1  0  0  0  0
 18 21  1  0  0  0  0
 18 28  1  0  0  0  0
 19 22  1  0  0  0  0
 19 34  1  0  0  0  0
 20 23  1  0  0  0  0
 20 34  1  0  0  0  0
 25 33  1  0  0  0  0
  2 36  1  0  0  0  0
 12 37  1  0  0  0  0
 12 38  1  0  0  0  0
 13 39  1  0  0  0  0
 13 40  1  0  0  0  0
 14 41  1  0  0  0  0
 14 42  1  0  0  0  0
 15 43  1  0  0  0  0
 15 44  1  0  0  0  0
 16 45  1  0  0  0  0
 16 46  1  0  0  0  0
 17 47  1  0  0  0  0
 18 48  1  0  0  0  0
 19 49  1  0  0  0  0
 20 50  1  0  0  0  0
 22 51  1  0  0  0  0
 22 52  1  0  0  0  0
 22 53  1  0  0  0  0
 23 54  1  0  0  0  0
 23 55  1  0  0  0  0
 23 56  1  0  0  0  0
 27 57  1  0  0  0  0
M  CHG  1  26  -1
M  END
> <SMILES>
CC1CN2C(C(C)O1)C1(Cc3cc4c(noc4c(c32)F)N2CC[C@H](C2)C#N)C(=O)NC(=O)NC1=O

> <FORMATTED_ID>
H3D-004139

> <MOLFORMULA>
C23H23FN6O5

> <Exact Mass>
482.17

> <XLogP>
0.41

> <TPSA_NOPS>
141.1

> <s_m_source_file>
ligprep_h3d.sdf

> <i_m_source_file_index>
511

> <i_lp_mmshare_version>
55123

> <i_f3d_flags>
0

> <s_epik_input>
Tz1DMVtOSF1DKD1PKVtOSF1DKD1PKUMxMltDQEBIXTNOKFtDSDJdW0NAQEhdKFtDSDNdKU9bQ0BIXTNbQ0gzXSljNGMoW0NIMl0yKVtjSF1jNWMoYzRGKW9uYzVONltDSDJdW0NIMl1bQ0BIXShbQ0gyXTYpQyNO

> <s_epik_cmdline>
J2VwaWtfcHl0aG9uJywgJy1waHQnLCAnMC41JywgJy1waCcsICc3LjUnLCAnLXRuJywgJzgnLCAnLW1hJywgJzUwMCcsICctaW1hZScsICc8aW5maWxlLm1hZT4nLCAnLW9tYWUnLCAnPG91dGZpbGUubWFlPic=

> <r_lp_tautomer_probability>
1

> <r_epik_Ionization_Penalty>
0.455388

> <r_epik_Ionization_Penalty_Charging>
0.455373

> <r_epik_Ionization_Penalty_Neutral>
1.46211e-05

> <r_epik_State_Penalty>
0.458483

> <r_epik_Charging_Adjusted_Penalty>
0.913857

> <i_epik_Tot_Q>
-1

> <i_epik_Tot_abs_Q>
1

> <s_lp_Force_Field>
S-OPLS

> <r_lp_Energy>
53.71

> <b_lp_Chiralities_Consistent>
1

> <s_lp_Variant>
ligprep_h3d.sdf:511-2

> <ROCS_ShapeQuery>
_7L13

> <ROCS_TanimotoCombo>
0.752 

> <ROCS_ShapeTanimoto>
0.622 

> <ROCS_ColorTanimoto>
0.131 

> <ROCS_RefTversky>
0.767 

> <ROCS_RefColorTversky>
0.298 

> <ROCS_RefTverskyCombo>
1.065 

> <ROCS_FitTversky>
0.767 

> <ROCS_FitColorTversky>
0.188 

> <ROCS_FitTverskyCombo>
0.955 

> <ROCS_ColorScore>
-2.776

> <ROCS_Overlap>
1273.321

> <ROCS_Rank>
588                 

$$$$
ligprep_h3d.sdf:4769_200
  -OEChem-08212117123D

 67 71  0     0  0  0  0  0  0999 V2000
  -20.2455   -8.2077  -32.0118 C   0  0  0  0  0  0  0  0  0  0  0  0
  -19.6804   -7.2875  -32.8946 C   0  0  0  0  0  0  0  0  0  0  0  0
  -21.4456   -7.9088  -31.3666 C   0  0  0  0  0  0  0  0  0  0  0  0
  -20.3152   -6.0684  -33.1323 C   0  0  0  0  0  0  0  0  0  0  0  0
  -22.0804   -6.6897  -31.6042 C   0  0  0  0  0  0  0  0  0  0  0  0
  -18.1641   -6.5035  -25.5699 C   0  0  0  0  0  0  0  0  0  0  0  0
  -23.5070   -3.8671  -28.4513 C   0  0  0  0  0  0  0  0  0  0  0  0
  -20.9097   -4.0252  -29.5383 C   0  0  0  0  0  0  0  0  0  0  0  0
  -17.1944   -6.4228  -24.5526 C   0  0  0  0  0  0  0  0  0  0  0  0
  -22.4270   -4.2385  -27.6585 C   0  0  0  0  0  0  0  0  0  0  0  0
  -21.5152   -5.7695  -32.4871 C   0  0  0  0  0  0  0  0  0  0  0  0
  -21.9947   -3.6532  -30.3362 C   0  0  0  0  0  0  0  0  0  0  0  0
  -21.1406   -4.3207  -28.2018 C   0  0  0  0  0  0  0  0  0  0  0  0
  -23.2851   -3.5771  -29.7976 C   0  0  0  0  0  0  0  0  0  0  0  0
  -18.0713   -5.3020  -26.2288 C   0  0  0  0  0  0  0  0  0  0  0  0
  -18.8464   -4.8258  -27.3852 C   0  0  0  0  0  0  0  0  0  0  0  0
  -25.1561   -4.2203  -22.7742 C   0  0  0  0  0  0  0  0  0  0  0  0
  -23.4729   -5.5874  -25.7533 C   0  0  0  0  0  0  0  0  0  0  0  0
  -22.5937   -3.2091  -25.3878 C   0  0  0  0  0  0  0  0  0  0  0  0
  -24.6969   -4.9668  -25.0846 C   0  0  0  0  0  0  0  0  0  0  0  0
  -23.0633   -3.4454  -23.9554 C   0  0  0  0  0  0  0  0  0  0  0  0
  -20.9866   -5.0959  -26.0037 C   0  0  0  0  0  0  0  0  0  0  0  0
  -22.4255   -4.5319  -26.1711 C   0  0  0  0  0  0  0  0  0  0  0  0
  -24.7048   -3.3984  -21.5914 C   0  0  0  0  0  0  0  0  0  0  0  0
  -16.6199   -3.2750  -25.9156 C   0  0  0  0  0  0  0  0  0  0  0  0
  -24.6484   -1.8275  -30.6566 C   0  0  0  0  0  0  0  0  0  0  0  0
  -22.2026   -4.4505  -32.7436 C   0  0  0  0  0  0  0  0  0  0  0  0
  -21.7588   -3.3359  -31.7775 C   0  0  0  0  0  0  0  0  0  0  0  0
  -16.5340   -5.2619  -24.5607 N   0  0  0  0  0  0  0  0  0  0  0  0
  -17.0896   -4.6021  -25.5912 N   0  0  0  0  0  0  0  0  0  0  0  0
  -20.2220   -4.7381  -27.2185 N   0  0  0  0  0  0  0  0  0  0  0  0
  -24.3225   -4.1982  -23.8946 N   0  0  0  0  0  0  0  0  0  0  0  0
  -18.1978   -4.5330  -28.3861 O   0  0  0  0  0  0  0  0  0  0  0  0
  -26.2117   -4.8542  -22.7078 O   0  0  0  0  0  0  0  0  0  0  0  0
  -24.3423   -3.2179  -30.5808 O   0  0  0  0  0  0  0  0  0  0  0  0
  -19.7518   -9.1574  -31.8278 H   0  0  0  0  0  0  0  0  0  0  0  0
  -18.7465   -7.5205  -33.3979 H   0  0  0  0  0  0  0  0  0  0  0  0
  -21.8864   -8.6254  -30.6800 H   0  0  0  0  0  0  0  0  0  0  0  0
  -19.8674   -5.3575  -33.8217 H   0  0  0  0  0  0  0  0  0  0  0  0
  -23.0150   -6.4654  -31.0970 H   0  0  0  0  0  0  0  0  0  0  0  0
  -18.8337   -7.3224  -25.7903 H   0  0  0  0  0  0  0  0  0  0  0  0
  -24.5066   -3.8016  -28.0337 H   0  0  0  0  0  0  0  0  0  0  0  0
  -19.9222   -4.0747  -29.9799 H   0  0  0  0  0  0  0  0  0  0  0  0
  -16.9409   -7.1616  -23.8059 H   0  0  0  0  0  0  0  0  0  0  0  0
  -23.0235   -6.3294  -25.0780 H   0  0  0  0  0  0  0  0  0  0  0  0
  -23.8109   -6.1520  -26.6346 H   0  0  0  0  0  0  0  0  0  0  0  0
  -23.3274   -2.5672  -25.8907 H   0  0  0  0  0  0  0  0  0  0  0  0
  -21.6524   -2.6475  -25.3765 H   0  0  0  0  0  0  0  0  0  0  0  0
  -25.2252   -4.3331  -25.8053 H   0  0  0  0  0  0  0  0  0  0  0  0
  -25.4038   -5.7405  -24.7614 H   0  0  0  0  0  0  0  0  0  0  0  0
  -22.3178   -4.0262  -23.3886 H   0  0  0  0  0  0  0  0  0  0  0  0
  -23.1446   -2.4774  -23.4436 H   0  0  0  0  0  0  0  0  0  0  0  0
  -20.4640   -4.6771  -25.1379 H   0  0  0  0  0  0  0  0  0  0  0  0
  -20.9697   -6.1868  -25.9110 H   0  0  0  0  0  0  0  0  0  0  0  0
  -25.1121   -2.3966  -21.6794 H   0  0  0  0  0  0  0  0  0  0  0  0
  -23.6203   -3.3582  -21.5796 H   0  0  0  0  0  0  0  0  0  0  0  0
  -25.0608   -3.8648  -20.6785 H   0  0  0  0  0  0  0  0  0  0  0  0
  -17.2186   -2.5573  -25.3485 H   0  0  0  0  0  0  0  0  0  0  0  0
  -15.5632   -3.1872  -25.6481 H   0  0  0  0  0  0  0  0  0  0  0  0
  -16.7328   -3.1043  -26.9899 H   0  0  0  0  0  0  0  0  0  0  0  0
  -25.5101   -1.6786  -31.3119 H   0  0  0  0  0  0  0  0  0  0  0  0
  -23.7835   -1.2838  -31.0451 H   0  0  0  0  0  0  0  0  0  0  0  0
  -24.8871   -1.4610  -29.6555 H   0  0  0  0  0  0  0  0  0  0  0  0
  -21.9882   -4.1469  -33.7766 H   0  0  0  0  0  0  0  0  0  0  0  0
  -23.2911   -4.5819  -32.6942 H   0  0  0  0  0  0  0  0  0  0  0  0
  -22.3072   -2.4149  -32.0357 H   0  0  0  0  0  0  0  0  0  0  0  0
  -20.6975   -3.0932  -31.9520 H   0  0  0  0  0  0  0  0  0  0  0  0
  1  2  2  0  0  0  0
  1  3  1  0  0  0  0
  2  4  1  0  0  0  0
  3  5  2  0  0  0  0
  4 11  2  0  0  0  0
  5 11  1  0  0  0  0
  6  9  1  0  0  0  0
  6 15  2  0  0  0  0
  7 10  1  0  0  0  0
  7 14  2  0  0  0  0
  8 12  2  0  0  0  0
  8 13  1  0  0  0  0
  9 29  2  0  0  0  0
 10 13  2  0  0  0  0
 10 23  1  0  0  0  0
 11 27  1  0  0  0  0
 12 14  1  0  0  0  0
 12 28  1  0  0  0  0
 13 31  1  0  0  0  0
 14 35  1  0  0  0  0
 15 16  1  0  0  0  0
 15 30  1  0  0  0  0
 16 31  1  0  0  0  0
 16 33  2  0  0  0  0
 17 24  1  0  0  0  0
 17 32  1  0  0  0  0
 17 34  2  0  0  0  0
 18 20  1  0  0  0  0
 18 23  1  0  0  0  0
 19 21  1  0  0  0  0
 19 23  1  0  0  0  0
 20 32  1  0  0  0  0
 21 32  1  0  0  0  0
 22 23  1  0  0  0  0
 22 31  1  0  0  0  0
 25 30  1  0  0  0  0
 26 35  1  0  0  0  0
 27 28  1  0  0  0  0
 29 30  1  0  0  0  0
  1 36  1  0  0  0  0
  2 37  1  0  0  0  0
  3 38  1  0  0  0  0
  4 39  1  0  0  0  0
  5 40  1  0  0  0  0
  6 41  1  0  0  0  0
  7 42  1  0  0  0  0
  8 43  1  0  0  0  0
  9 44  1  0  0  0  0
 18 45  1  0  0  0  0
 18 46  1  0  0  0  0
 19 47  1  0  0  0  0
 19 48  1  0  0  0  0
 20 49  1  0  0  0  0
 20 50  1  0  0  0  0
 21 51  1  0  0  0  0
 21 52  1  0  0  0  0
 22 53  1  0  0  0  0
 22 54  1  0  0  0  0
 24 55  1  0  0  0  0
 24 56  1  0  0  0  0
 24 57  1  0  0  0  0
 25 58  1  0  0  0  0
 25 59  1  0  0  0  0
 25 60  1  0  0  0  0
 26 61  1  0  0  0  0
 26 62  1  0  0  0  0
 26 63  1  0  0  0  0
 27 64  1  0  0  0  0
 27 65  1  0  0  0  0
 28 66  1  0  0  0  0
 28 67  1  0  0  0  0
M  END
> <SMILES>
COc1cc2c(cc1CCc1ccccc1)N(CC12CCN(CC1)C(=O)C)C(=O)c1ccnn1C

> <FORMATTED_ID>
H3D-007410

> <MOLFORMULA>
C28H32N4O3

> <Exact Mass>
472.25

> <XLogP>
5.17

> <TPSA_NOPS>
67.7

> <s_m_source_file>
ligprep_h3d.sdf

> <i_m_source_file_index>
4769

> <i_lp_mmshare_version>
55123

> <i_f3d_flags>
0

> <s_epik_input>
W2NIXTFbY0hdW2NIXVtjSF1bY0hdYzFbQ0gyXVtDSDJdYyhjKFtjSF0yKU9bQ0gzXSlbY0hdYyhjMkMzNFtDSDJdW0NIMl1OKFtDSDJdW0NIMl00KUMoPU8pW0NIM10pTihbQ0gyXTMpQyg9TyljNVtjSF1bY0hdbm41W0NIM10=

> <s_epik_cmdline>
J2VwaWtfcHl0aG9uJywgJy1waHQnLCAnMC41JywgJy1waCcsICc3LjUnLCAnLXRuJywgJzgnLCAnLW1hJywgJzUwMCcsICctaW1hZScsICc8aW5maWxlLm1hZT4nLCAnLW9tYWUnLCAnPG91dGZpbGUubWFlPic=

> <r_lp_tautomer_probability>
1

> <r_epik_Ionization_Penalty>
1.87339e-06

> <r_epik_Ionization_Penalty_Charging>
0

> <r_epik_Ionization_Penalty_Neutral>
1.87339e-06

> <r_epik_State_Penalty>
-0

> <r_epik_Charging_Adjusted_Penalty>
0

> <i_epik_Tot_Q>
0

> <i_epik_Tot_abs_Q>
0

> <s_lp_Force_Field>
S-OPLS

> <r_lp_Energy>
62.4252

> <b_lp_Chiralities_Consistent>
1

> <s_lp_Variant>
ligprep_h3d.sdf:4769-1

> <ROCS_ShapeQuery>
_7L13

> <ROCS_TanimotoCombo>
0.756 

> <ROCS_ShapeTanimoto>
0.637 

> <ROCS_ColorTanimoto>
0.119 

> <ROCS_RefTversky>
0.767 

> <ROCS_RefColorTversky>
0.213 

> <ROCS_RefTverskyCombo>
0.980 

> <ROCS_FitTversky>
0.790 

> <ROCS_FitColorTversky>
0.213 

> <ROCS_FitTverskyCombo>
1.003 

> <ROCS_ColorScore>
-1.918

> <ROCS_Overlap>
1271.251

> <ROCS_Rank>
589                 

$$$$
ligprep_h3d.sdf:981_812
  -OEChem-08212117123D

 71 75  0     0  0  0  0  0  0999 V2000
  -19.9793   -3.9218  -32.0720 C   0  0  0  0  0  0  0  0  0  0  0  0
  -20.4236   -6.2875  -31.8643 C   0  0  0  0  0  0  0  0  0  0  0  0
  -19.4141   -4.1382  -33.3287 C   0  0  0  0  0  0  0  0  0  0  0  0
  -19.8585   -6.5039  -33.1211 C   0  0  0  0  0  0  0  0  0  0  0  0
  -16.5695   -4.6658  -26.3961 C   0  0  0  0  0  0  0  0  0  0  0  0
  -23.0058   -4.2889  -28.6785 C   0  0  0  0  0  0  0  0  0  0  0  0
  -20.7078   -4.4163  -25.2182 C   0  0  0  0  0  0  0  0  0  0  0  0
  -16.9720   -6.0098  -26.2805 C   0  0  0  0  0  0  0  0  0  0  0  0
  -20.8686   -4.5976  -27.6236 C   0  0  0  0  0  0  0  0  0  0  0  0
  -20.4840   -4.9964  -31.3398 C   0  0  0  0  0  0  0  0  0  0  0  0
  -21.0700   -4.7719  -30.0362 C   0  0  0  0  0  0  0  0  0  0  0  0
  -19.3537   -5.4293  -33.8533 C   0  0  0  0  0  0  0  0  0  0  0  0
  -22.4300   -4.5073  -29.9325 C   0  0  0  0  0  0  0  0  0  0  0  0
  -20.2892   -4.8173  -28.8849 C   0  0  0  0  0  0  0  0  0  0  0  0
  -22.2487   -4.3285  -27.5108 C   0  0  0  0  0  0  0  0  0  0  0  0
  -20.1060   -4.6374  -26.4486 C   0  0  0  0  0  0  0  0  0  0  0  0
  -22.0641   -4.1608  -25.2080 C   0  0  0  0  0  0  0  0  0  0  0  0
  -17.7455   -3.9609  -26.4764 C   0  0  0  0  0  0  0  0  0  0  0  0
  -22.7564   -3.9221  -23.9532 C   0  0  0  0  0  0  0  0  0  0  0  0
  -18.9748   -7.0013  -37.2916 C   0  0  0  0  0  0  0  0  0  0  0  0
  -20.6853   -5.2458  -36.7095 C   0  0  0  0  0  0  0  0  0  0  0  0
  -19.9427   -7.8272  -38.1219 C   0  0  0  0  0  0  0  0  0  0  0  0
  -21.8026   -5.9179  -37.4894 C   0  0  0  0  0  0  0  0  0  0  0  0
  -23.3145   -4.4458  -31.1373 C   0  0  0  0  0  0  0  0  0  0  0  0
  -18.8269   -5.1086  -29.0752 C   0  0  0  0  0  0  0  0  0  0  0  0
  -17.9883   -2.5111  -26.6106 C   0  0  0  0  0  0  0  0  0  0  0  0
  -18.7456   -5.6622  -35.2049 C   0  0  0  0  0  0  0  0  0  0  0  0
  -24.9318   -4.1074  -22.7186 C   0  0  0  0  0  0  0  0  0  0  0  0
  -25.9888   -5.1949  -22.6589 C   0  0  0  0  0  0  0  0  0  0  0  0
  -18.3000   -6.1527  -26.2862 N   0  0  0  0  0  0  0  0  0  0  0  0
  -22.8356   -4.1135  -26.3182 N   0  0  0  0  0  0  0  0  0  0  0  0
  -18.7422   -4.8893  -26.4064 N   0  0  0  0  0  0  0  0  0  0  0  0
  -24.1031   -4.3003  -23.8869 N   0  0  0  0  0  0  0  0  0  0  0  0
  -19.7086   -6.2748  -36.1877 N   0  3  0  0  0  0  0  0  0  0  0  0
  -22.1672   -3.3849  -22.9976 O   0  0  0  0  0  0  0  0  0  0  0  0
  -26.8187   -5.1106  -23.8104 O   0  0  0  0  0  0  0  0  0  0  0  0
  -21.1734   -6.7856  -38.9528 S   0  0  0  0  0  0  0  0  0  0  0  0
  -20.0184   -2.9096  -31.6764 H   0  0  0  0  0  0  0  0  0  0  0  0
  -20.8134   -7.1354  -31.3060 H   0  0  0  0  0  0  0  0  0  0  0  0
  -19.0223   -3.2952  -33.8917 H   0  0  0  0  0  0  0  0  0  0  0  0
  -19.8160   -7.5131  -33.5224 H   0  0  0  0  0  0  0  0  0  0  0  0
  -15.5661   -4.2662  -26.4177 H   0  0  0  0  0  0  0  0  0  0  0  0
  -24.0735   -4.0826  -28.6121 H   0  0  0  0  0  0  0  0  0  0  0  0
  -20.1399   -4.4415  -24.2922 H   0  0  0  0  0  0  0  0  0  0  0  0
  -16.3528   -6.8910  -26.1921 H   0  0  0  0  0  0  0  0  0  0  0  0
  -18.2481   -7.6645  -36.8096 H   0  0  0  0  0  0  0  0  0  0  0  0
  -18.4345   -6.2559  -37.8868 H   0  0  0  0  0  0  0  0  0  0  0  0
  -20.1250   -4.5203  -37.3106 H   0  0  0  0  0  0  0  0  0  0  0  0
  -21.1057   -4.7323  -35.8376 H   0  0  0  0  0  0  0  0  0  0  0  0
  -19.3894   -8.3745  -38.8919 H   0  0  0  0  0  0  0  0  0  0  0  0
  -20.4575   -8.5708  -37.5041 H   0  0  0  0  0  0  0  0  0  0  0  0
  -22.3524   -6.6259  -36.8596 H   0  0  0  0  0  0  0  0  0  0  0  0
  -22.5189   -5.1622  -37.8273 H   0  0  0  0  0  0  0  0  0  0  0  0
  -23.3477   -3.4236  -31.5294 H   0  0  0  0  0  0  0  0  0  0  0  0
  -22.9516   -5.1137  -31.9270 H   0  0  0  0  0  0  0  0  0  0  0  0
  -24.3353   -4.7621  -30.8931 H   0  0  0  0  0  0  0  0  0  0  0  0
  -18.6558   -6.1872  -29.0335 H   0  0  0  0  0  0  0  0  0  0  0  0
  -18.4792   -4.7285  -30.0398 H   0  0  0  0  0  0  0  0  0  0  0  0
  -18.2313   -4.6218  -28.2978 H   0  0  0  0  0  0  0  0  0  0  0  0
  -18.0391   -2.2132  -27.6707 H   0  0  0  0  0  0  0  0  0  0  0  0
  -18.9330   -2.2036  -26.1305 H   0  0  0  0  0  0  0  0  0  0  0  0
  -17.1944   -1.9126  -26.1319 H   0  0  0  0  0  0  0  0  0  0  0  0
  -18.3971   -4.7237  -35.6493 H   0  0  0  0  0  0  0  0  0  0  0  0
  -17.8875   -6.3400  -35.1411 H   0  0  0  0  0  0  0  0  0  0  0  0
  -25.3875   -3.1141  -22.7816 H   0  0  0  0  0  0  0  0  0  0  0  0
  -24.2896   -4.1514  -21.8338 H   0  0  0  0  0  0  0  0  0  0  0  0
  -26.6206   -5.0554  -21.7762 H   0  0  0  0  0  0  0  0  0  0  0  0
  -25.5386   -6.1922  -22.6216 H   0  0  0  0  0  0  0  0  0  0  0  0
  -24.5532   -4.6764  -24.7150 H   0  0  0  0  0  0  0  0  0  0  0  0
  -20.2491   -6.9755  -35.6622 H   0  0  0  0  0  0  0  0  0  0  0  0
  -27.4771   -5.8196  -23.7330 H   0  0  0  0  0  0  0  0  0  0  0  0
  1  3  1  0  0  0  0
  1 10  2  0  0  0  0
  2  4  2  0  0  0  0
  2 10  1  0  0  0  0
  3 12  2  0  0  0  0
  4 12  1  0  0  0  0
  5  8  1  0  0  0  0
  5 18  2  0  0  0  0
  6 13  2  0  0  0  0
  6 15  1  0  0  0  0
  7 16  1  0  0  0  0
  7 17  2  0  0  0  0
  8 30  2  0  0  0  0
  9 14  1  0  0  0  0
  9 15  1  0  0  0  0
  9 16  2  0  0  0  0
 10 11  1  0  0  0  0
 11 13  1  0  0  0  0
 11 14  2  0  0  0  0
 12 27  1  0  0  0  0
 13 24  1  0  0  0  0
 14 25  1  0  0  0  0
 15 31  2  0  0  0  0
 16 32  1  0  0  0  0
 17 19  1  0  0  0  0
 17 31  1  0  0  0  0
 18 26  1  0  0  0  0
 18 32  1  0  0  0  0
 19 33  1  0  0  0  0
 19 35  2  0  0  0  0
 20 22  1  0  0  0  0
 20 34  1  0  0  0  0
 21 23  1  0  0  0  0
 21 34  1  0  0  0  0
 22 37  1  0  0  0  0
 23 37  1  0  0  0  0
 27 34  1  0  0  0  0
 28 29  1  0  0  0  0
 28 33  1  0  0  0  0
 29 36  1  0  0  0  0
 30 32  1  0  0  0  0
  1 38  1  0  0  0  0
  2 39  1  0  0  0  0
  3 40  1  0  0  0  0
  4 41  1  0  0  0  0
  5 42  1  0  0  0  0
  6 43  1  0  0  0  0
  7 44  1  0  0  0  0
  8 45  1  0  0  0  0
 20 46  1  0  0  0  0
 20 47  1  0  0  0  0
 21 48  1  0  0  0  0
 21 49  1  0  0  0  0
 22 50  1  0  0  0  0
 22 51  1  0  0  0  0
 23 52  1  0  0  0  0
 23 53  1  0  0  0  0
 24 54  1  0  0  0  0
 24 55  1  0  0  0  0
 24 56  1  0  0  0  0
 25 57  1  0  0  0  0
 25 58  1  0  0  0  0
 25 59  1  0  0  0  0
 26 60  1  0  0  0  0
 26 61  1  0  0  0  0
 26 62  1  0  0  0  0
 27 63  1  0  0  0  0
 27 64  1  0  0  0  0
 28 65  1  0  0  0  0
 28 66  1  0  0  0  0
 29 67  1  0  0  0  0
 29 68  1  0  0  0  0
 33 69  1  0  0  0  0
 34 70  1  0  0  0  0
 36 71  1  0  0  0  0
M  CHG  1  34   1
M  END
> <SMILES>
Cc1cc2nc(cc(c2c(c1-c1ccc(cc1)CN1CCSCC1)C)-n1nccc1C)C(=O)NCCO

> <FORMATTED_ID>
H3D-006063

> <MOLFORMULA>
C29H33N5O2S

> <Exact Mass>
515.24

> <XLogP>
3.7

> <TPSA_NOPS>
108.6

> <s_m_source_file>
ligprep_h3d.sdf

> <i_m_source_file_index>
981

> <i_lp_mmshare_version>
55123

> <i_f3d_flags>
0

> <s_epik_input>
W09IXVtDSDJdW0NIMl1bTkhdQyg9TyljKG4xKVtjSF1jKC1uMm5bY0hdW2NIXWMyW0NIM10pYyhjMTMpYyhbQ0gzXSljKGMoW0NIM10pW2NIXTMpLWM0W2NIXVtjSF1jKFtjSF1bY0hdNClbQ0gyXU41W0NIMl1bQ0gyXVNbQ0gyXVtDSDJdNQ==

> <s_epik_cmdline>
J2VwaWtfcHl0aG9uJywgJy1waHQnLCAnMC41JywgJy1waCcsICc3LjUnLCAnLXRuJywgJzgnLCAnLW1hJywgJzUwMCcsICctaW1hZScsICc8aW5maWxlLm1hZT4nLCAnLW9tYWUnLCAnPG91dGZpbGUubWFlPic=

> <r_lp_tautomer_probability>
1

> <r_epik_Ionization_Penalty>
0.322256

> <r_epik_Ionization_Penalty_Charging>
0.322241

> <r_epik_Ionization_Penalty_Neutral>
1.57505e-05

> <r_epik_State_Penalty>
0.31686

> <r_epik_Charging_Adjusted_Penalty>
0.6391

> <i_epik_Tot_Q>
1

> <i_epik_Tot_abs_Q>
1

> <s_lp_Force_Field>
S-OPLS

> <r_lp_Energy>
50.62

> <b_lp_Chiralities_Consistent>
1

> <s_lp_Variant>
ligprep_h3d.sdf:981-1

> <ROCS_ShapeQuery>
_7L13

> <ROCS_TanimotoCombo>
0.719 

> <ROCS_ShapeTanimoto>
0.615 

> <ROCS_ColorTanimoto>
0.104 

> <ROCS_RefTversky>
0.767 

> <ROCS_RefColorTversky>
0.226 

> <ROCS_RefTverskyCombo>
0.992 

> <ROCS_FitTversky>
0.757 

> <ROCS_FitColorTversky>
0.162 

> <ROCS_FitTverskyCombo>
0.919 

> <ROCS_ColorScore>
-2.077

> <ROCS_Overlap>
1274.138

> <ROCS_Rank>
590                 

$$$$
ligprep_h3d.sdf:810_25
  -OEChem-08212117123D

 56 61  0     1  0  0  0  0  0999 V2000
  -20.9429   -5.1552  -29.4872 C   0  0  0  0  0  0  0  0  0  0  0  0
  -21.7115   -4.3989  -30.3746 C   0  0  0  0  0  0  0  0  0  0  0  0
  -21.0650   -4.9067  -28.0989 C   0  0  0  0  0  0  0  0  0  0  0  0
  -21.9648   -3.9492  -27.5736 C   0  0  0  0  0  0  0  0  0  0  0  0
  -22.5609   -3.4449  -29.8587 C   0  0  0  0  0  0  0  0  0  0  0  0
  -22.7172   -3.1857  -28.4969 C   0  0  0  0  0  0  0  0  0  0  0  0
  -21.8989   -4.2976  -31.7657 C   0  0  0  0  0  0  0  0  0  0  0  0
  -18.8881   -3.7928  -26.2186 C   0  0  0  0  0  0  0  0  0  0  0  0
  -19.2061   -5.9998  -24.9821 C   0  0  0  0  0  0  0  0  0  0  0  0
  -17.0312   -5.1173  -25.7963 C   0  0  0  0  0  0  0  0  0  0  0  0
  -20.2113   -5.7246  -27.1672 C   0  0  0  0  0  0  0  0  0  0  0  0
  -20.3380   -7.0115  -33.7133 C   0  0  0  0  0  0  0  0  0  0  0  0
  -20.7605   -6.4554  -32.3556 C   0  0  0  0  0  0  0  0  0  0  0  0
  -23.0540   -2.8117  -25.6495 C   0  0  0  0  0  0  0  0  0  0  0  0
  -20.8325   -4.6809  -34.0042 C   0  0  0  0  0  0  0  0  0  0  0  0
  -21.1875   -4.4553  -25.2232 C   0  0  2  0  0  0  0  0  0  0  0  0
  -23.4268   -3.1267  -24.1978 C   0  0  1  0  0  0  0  0  0  0  0  0
  -21.0463   -3.5119  -23.9926 C   0  0  2  0  0  0  0  0  0  0  0  0
  -19.8543   -4.9504  -25.8742 C   0  0  2  0  0  0  0  0  0  0  0  0
  -19.8794   -5.7747  -34.4541 C   0  0  0  0  0  0  0  0  0  0  0  0
  -24.3976   -4.3004  -24.0822 C   0  0  0  0  0  0  0  0  0  0  0  0
  -20.0857   -3.9648  -22.9003 C   0  0  0  0  0  0  0  0  0  0  0  0
  -22.7902   -3.3561  -32.0899 N   0  0  0  0  0  0  0  0  0  0  0  0
  -17.6210   -4.1281  -26.4686 N   0  5  0  0  0  0  0  0  0  0  0  0
  -17.8266   -5.9703  -25.0333 N   0  0  0  0  0  0  0  0  0  0  0  0
  -22.0818   -3.7681  -26.1933 N   0  0  3  0  0  0  0  0  0  0  0  0
  -21.2145   -5.0981  -32.6557 N   0  0  0  0  0  0  0  0  0  0  0  0
  -19.3098   -2.6455  -26.3635 O   0  0  0  0  0  0  0  0  0  0  0  0
  -19.8341   -6.8400  -24.3417 O   0  0  0  0  0  0  0  0  0  0  0  0
  -15.8149   -5.3218  -25.8357 O   0  0  0  0  0  0  0  0  0  0  0  0
  -23.2066   -2.8159  -30.8787 O   0  0  0  0  0  0  0  0  0  0  0  0
  -22.3157   -3.3723  -23.3408 O   0  0  0  0  0  0  0  0  0  0  0  0
  -23.4963   -2.1580  -28.1385 F   0  0  0  0  0  0  0  0  0  0  0  0
  -18.6113   -5.4613  -34.1017 F   0  0  0  0  0  0  0  0  0  0  0  0
  -19.9064   -5.9530  -35.7872 F   0  0  0  0  0  0  0  0  0  0  0  0
  -20.2571   -5.9130  -29.8552 H   0  0  0  0  0  0  0  0  0  0  0  0
  -20.7643   -6.6440  -26.9304 H   0  0  0  0  0  0  0  0  0  0  0  0
  -19.2949   -6.0381  -27.6843 H   0  0  0  0  0  0  0  0  0  0  0  0
  -19.5426   -7.7559  -33.6159 H   0  0  0  0  0  0  0  0  0  0  0  0
  -21.1899   -7.4724  -34.2259 H   0  0  0  0  0  0  0  0  0  0  0  0
  -21.5512   -7.0652  -31.9037 H   0  0  0  0  0  0  0  0  0  0  0  0
  -19.9063   -6.4170  -31.6685 H   0  0  0  0  0  0  0  0  0  0  0  0
  -23.9617   -2.8675  -26.2851 H   0  0  0  0  0  0  0  0  0  0  0  0
  -22.7538   -1.7532  -25.6938 H   0  0  0  0  0  0  0  0  0  0  0  0
  -20.3391   -3.7027  -33.9985 H   0  0  0  0  0  0  0  0  0  0  0  0
  -21.7193   -4.6351  -34.6472 H   0  0  0  0  0  0  0  0  0  0  0  0
  -21.7539   -5.3397  -24.8896 H   0  0  0  0  0  0  0  0  0  0  0  0
  -23.9870   -2.2257  -23.7671 H   0  0  0  0  0  0  0  0  0  0  0  0
  -20.7254   -2.5016  -24.3044 H   0  0  0  0  0  0  0  0  0  0  0  0
  -23.9359   -5.2065  -24.4748 H   0  0  0  0  0  0  0  0  0  0  0  0
  -25.3047   -4.0915  -24.6495 H   0  0  0  0  0  0  0  0  0  0  0  0
  -24.6634   -4.4631  -23.0375 H   0  0  0  0  0  0  0  0  0  0  0  0
  -20.3580   -4.9620  -22.5543 H   0  0  0  0  0  0  0  0  0  0  0  0
  -20.1271   -3.2746  -22.0577 H   0  0  0  0  0  0  0  0  0  0  0  0
  -19.0668   -3.9905  -23.2870 H   0  0  0  0  0  0  0  0  0  0  0  0
  -17.3380   -6.6439  -24.4511 H   0  0  0  0  0  0  0  0  0  0  0  0
  1  2  2  0  0  0  0
  1  3  1  0  0  0  0
  2  5  1  0  0  0  0
  2  7  1  0  0  0  0
  3  4  2  0  0  0  0
  3 11  1  0  0  0  0
  4  6  1  0  0  0  0
  4 26  1  0  0  0  0
  5  6  2  0  0  0  0
  5 31  1  0  0  0  0
  6 33  1  0  0  0  0
  7 23  2  0  0  0  0
  7 27  1  0  0  0  0
  8 19  1  0  0  0  0
  8 24  1  0  0  0  0
  8 28  2  0  0  0  0
  9 19  1  0  0  0  0
  9 25  1  0  0  0  0
  9 29  2  0  0  0  0
 10 24  1  0  0  0  0
 10 25  1  0  0  0  0
 10 30  2  0  0  0  0
 11 19  1  0  0  0  0
 12 13  1  0  0  0  0
 12 20  1  0  0  0  0
 13 27  1  0  0  0  0
 14 17  1  0  0  0  0
 14 26  1  0  0  0  0
 15 20  1  0  0  0  0
 15 27  1  0  0  0  0
 16 18  1  0  0  0  0
 16 19  1  0  0  0  0
 16 26  1  0  0  0  0
 17 21  1  0  0  0  0
 17 32  1  0  0  0  0
 18 22  1  0  0  0  0
 18 32  1  0  0  0  0
 20 34  1  0  0  0  0
 20 35  1  0  0  0  0
 23 31  1  0  0  0  0
  1 36  1  0  0  0  0
 11 37  1  0  0  0  0
 11 38  1  0  0  0  0
 12 39  1  0  0  0  0
 12 40  1  0  0  0  0
 13 41  1  0  0  0  0
 13 42  1  0  0  0  0
 14 43  1  0  0  0  0
 14 44  1  0  0  0  0
 15 45  1  0  0  0  0
 15 46  1  0  0  0  0
 16 47  1  0  0  0  0
 17 48  1  0  0  0  0
 18 49  1  0  0  0  0
 21 50  1  0  0  0  0
 21 51  1  0  0  0  0
 21 52  1  0  0  0  0
 22 53  1  0  0  0  0
 22 54  1  0  0  0  0
 22 55  1  0  0  0  0
 25 56  1  0  0  0  0
M  CHG  1  24  -1
M  END
> <SMILES>
C[C@@H]1CN2[C@H]([C@H](C)O1)C1(Cc3cc4c(noc4c(c32)F)N2CCC(F)(F)C2)C(=O)NC(=O)NC1=O

> <FORMATTED_ID>
H3D-005488

> <MOLFORMULA>
C22H22F3N5O5

> <Exact Mass>
493.16

> <XLogP>
1.24

> <TPSA_NOPS>
117.3

> <s_m_source_file>
ligprep_h3d.sdf

> <i_m_source_file_index>
810

> <i_lp_mmshare_version>
55123

> <i_f3d_flags>
0

> <s_epik_input>
Tz1DMVtOSF1DKD1PKVtOSF1DKD1PKUMxMltDQEBIXTNOKFtDSDJdW0NAQEhdKFtDSDNdKU9bQ0BIXTNbQ0gzXSljNGMoW0NIMl0yKVtjSF1jNWMoYzRGKW9uYzVOKFtDSDJdNilbQ0gyXVtDSDJdQzYoRilG

> <s_epik_cmdline>
J2VwaWtfcHl0aG9uJywgJy1waHQnLCAnMC41JywgJy1waCcsICc3LjUnLCAnLXRuJywgJzgnLCAnLW1hJywgJzUwMCcsICctaW1hZScsICc8aW5maWxlLm1hZT4nLCAnLW9tYWUnLCAnPG91dGZpbGUubWFlPic=

> <r_lp_tautomer_probability>
1

> <r_epik_Ionization_Penalty>
0.455388

> <r_epik_Ionization_Penalty_Charging>
0.455373

> <r_epik_Ionization_Penalty_Neutral>
1.46372e-05

> <r_epik_State_Penalty>
0.458483

> <r_epik_Charging_Adjusted_Penalty>
0.913857

> <i_epik_Tot_Q>
-1

> <i_epik_Tot_abs_Q>
1

> <s_lp_Force_Field>
S-OPLS

> <r_lp_Energy>
52.0924

> <b_lp_Chiralities_Consistent>
1

> <s_lp_Variant>
ligprep_h3d.sdf:810-2

> <ROCS_ShapeQuery>
_7L13

> <ROCS_TanimotoCombo>
0.754 

> <ROCS_ShapeTanimoto>
0.618 

> <ROCS_ColorTanimoto>
0.137 

> <ROCS_RefTversky>
0.767 

> <ROCS_RefColorTversky>
0.299 

> <ROCS_RefTverskyCombo>
1.066 

> <ROCS_FitTversky>
0.761 

> <ROCS_FitColorTversky>
0.201 

> <ROCS_FitTverskyCombo>
0.962 

> <ROCS_ColorScore>
-2.768

> <ROCS_Overlap>
1273.649

> <ROCS_Rank>
591                 

$$$$
ligprep_h3d.sdf:1108_1771
  -OEChem-08212117123D

 70 74  0     1  0  0  0  0  0999 V2000
  -20.7635   -3.8762  -32.3067 C   0  0  0  0  0  0  0  0  0  0  0  0
  -21.2941   -6.2230  -32.0872 C   0  0  0  0  0  0  0  0  0  0  0  0
  -20.3348   -4.0956  -33.6158 C   0  0  0  0  0  0  0  0  0  0  0  0
  -20.8654   -6.4424  -33.3963 C   0  0  0  0  0  0  0  0  0  0  0  0
  -17.1242   -6.0685  -26.8862 C   0  0  0  0  0  0  0  0  0  0  0  0
  -23.4585   -4.1662  -28.6298 C   0  0  0  0  0  0  0  0  0  0  0  0
  -20.8408   -4.4569  -25.4152 C   0  0  0  0  0  0  0  0  0  0  0  0
  -16.9611   -4.6751  -27.0029 C   0  0  0  0  0  0  0  0  0  0  0  0
  -21.2448   -4.5886  -27.7952 C   0  0  0  0  0  0  0  0  0  0  0  0
  -21.2431   -4.9399  -31.5424 C   0  0  0  0  0  0  0  0  0  0  0  0
  -21.6896   -4.7113  -30.1782 C   0  0  0  0  0  0  0  0  0  0  0  0
  -20.3858   -5.3786  -34.1606 C   0  0  0  0  0  0  0  0  0  0  0  0
  -23.0191   -4.3881  -29.9373 C   0  0  0  0  0  0  0  0  0  0  0  0
  -20.8025   -4.8118  -29.1103 C   0  0  0  0  0  0  0  0  0  0  0  0
  -22.5933   -4.2602  -27.5432 C   0  0  0  0  0  0  0  0  0  0  0  0
  -20.3733   -4.6831  -26.7018 C   0  0  0  0  0  0  0  0  0  0  0  0
  -22.1763   -4.1413  -25.2679 C   0  0  0  0  0  0  0  0  0  0  0  0
  -18.4797   -6.2457  -26.7537 C   0  0  0  0  0  0  0  0  0  0  0  0
  -18.3975   -7.6125  -35.6893 C   0  0  0  0  0  0  0  0  0  0  0  0
  -22.7305   -3.8941  -23.9479 C   0  0  0  0  0  0  0  0  0  0  0  0
  -17.4231   -5.5136  -35.7941 C   0  0  0  0  0  0  0  0  0  0  0  0
  -16.3667   -6.5729  -35.6011 C   0  0  0  0  0  0  0  0  0  0  0  0
  -24.0137   -4.2660  -31.0480 C   0  0  0  0  0  0  0  0  0  0  0  0
  -19.3809   -5.1647  -29.4478 C   0  0  0  0  0  0  0  0  0  0  0  0
  -19.2754   -7.4786  -26.5931 C   0  0  0  0  0  0  0  0  0  0  0  0
  -28.2748   -6.1796  -22.9512 C   0  0  0  0  0  0  0  0  0  0  0  0
  -19.9272   -5.6132  -35.5602 C   0  0  0  0  0  0  0  0  0  0  0  0
  -24.7806   -4.0036  -22.5070 C   0  0  0  0  0  0  0  0  0  0  0  0
  -26.2351   -4.4373  -22.5739 C   0  0  0  0  0  0  0  0  0  0  0  0
  -18.1205   -4.0140  -26.9495 N   0  0  0  0  0  0  0  0  0  0  0  0
  -23.0498   -4.0401  -26.2957 N   0  0  0  0  0  0  0  0  0  0  0  0
  -19.0250   -4.9963  -26.7978 N   0  0  0  0  0  0  0  0  0  0  0  0
  -18.6330   -6.2572  -35.6143 N   0  0  0  0  0  0  0  0  0  0  0  0
  -24.0803   -4.2129  -23.7539 N   0  0  0  0  0  0  0  0  0  0  0  0
  -19.2207   -8.5174  -35.6804 O   0  0  0  0  0  0  0  0  0  0  0  0
  -22.0263   -3.4006  -23.0481 O   0  0  0  0  0  0  0  0  0  0  0  0
  -26.0604   -6.3078  -24.4767 O   0  0  0  0  0  0  0  0  0  0  0  0
  -17.0443   -7.8250  -35.7968 O   0  0  0  0  0  0  0  0  0  0  0  0
  -26.3911   -6.1959  -23.0208 S   0  0  2  0  0  0  0  0  0  0  0  0
  -20.7169   -2.8704  -31.8960 H   0  0  0  0  0  0  0  0  0  0  0  0
  -21.6659   -7.0623  -31.5043 H   0  0  0  0  0  0  0  0  0  0  0  0
  -19.9616   -3.2612  -34.2036 H   0  0  0  0  0  0  0  0  0  0  0  0
  -20.9092   -7.4452  -33.8130 H   0  0  0  0  0  0  0  0  0  0  0  0
  -16.3636   -6.8355  -26.8972 H   0  0  0  0  0  0  0  0  0  0  0  0
  -24.5039   -3.9137  -28.4557 H   0  0  0  0  0  0  0  0  0  0  0  0
  -20.1866   -4.5238  -24.5503 H   0  0  0  0  0  0  0  0  0  0  0  0
  -16.0458   -4.1140  -27.1249 H   0  0  0  0  0  0  0  0  0  0  0  0
  -17.3410   -4.6974  -35.0719 H   0  0  0  0  0  0  0  0  0  0  0  0
  -17.4109   -5.1118  -36.8120 H   0  0  0  0  0  0  0  0  0  0  0  0
  -15.5550   -6.4832  -36.3285 H   0  0  0  0  0  0  0  0  0  0  0  0
  -15.9489   -6.5639  -34.5891 H   0  0  0  0  0  0  0  0  0  0  0  0
  -24.0379   -3.2366  -31.4215 H   0  0  0  0  0  0  0  0  0  0  0  0
  -23.7611   -4.9355  -31.8783 H   0  0  0  0  0  0  0  0  0  0  0  0
  -25.0192   -4.5406  -30.7084 H   0  0  0  0  0  0  0  0  0  0  0  0
  -19.2566   -6.2504  -29.4374 H   0  0  0  0  0  0  0  0  0  0  0  0
  -19.1123   -4.7837  -30.4370 H   0  0  0  0  0  0  0  0  0  0  0  0
  -18.6902   -4.7187  -28.7267 H   0  0  0  0  0  0  0  0  0  0  0  0
  -19.3995   -7.7355  -25.5284 H   0  0  0  0  0  0  0  0  0  0  0  0
  -20.2822   -7.3816  -27.0340 H   0  0  0  0  0  0  0  0  0  0  0  0
  -18.8055   -8.3424  -27.0939 H   0  0  0  0  0  0  0  0  0  0  0  0
  -28.6527   -7.1751  -23.1941 H   0  0  0  0  0  0  0  0  0  0  0  0
  -28.6511   -5.4531  -23.6746 H   0  0  0  0  0  0  0  0  0  0  0  0
  -28.5909   -5.8980  -21.9446 H   0  0  0  0  0  0  0  0  0  0  0  0
  -20.6359   -6.2504  -36.1076 H   0  0  0  0  0  0  0  0  0  0  0  0
  -19.8483   -4.6720  -36.1215 H   0  0  0  0  0  0  0  0  0  0  0  0
  -24.2513   -4.5895  -21.7490 H   0  0  0  0  0  0  0  0  0  0  0  0
  -24.6864   -2.9439  -22.2482 H   0  0  0  0  0  0  0  0  0  0  0  0
  -26.7607   -3.8689  -23.3474 H   0  0  0  0  0  0  0  0  0  0  0  0
  -26.7482   -4.2860  -21.6189 H   0  0  0  0  0  0  0  0  0  0  0  0
  -24.6263   -4.5539  -24.5383 H   0  0  0  0  0  0  0  0  0  0  0  0
  1  3  1  0  0  0  0
  1 10  2  0  0  0  0
  2  4  2  0  0  0  0
  2 10  1  0  0  0  0
  3 12  2  0  0  0  0
  4 12  1  0  0  0  0
  5  8  1  0  0  0  0
  5 18  2  0  0  0  0
  6 13  2  0  0  0  0
  6 15  1  0  0  0  0
  7 16  1  0  0  0  0
  7 17  2  0  0  0  0
  8 30  2  0  0  0  0
  9 14  1  0  0  0  0
  9 15  1  0  0  0  0
  9 16  2  0  0  0  0
 10 11  1  0  0  0  0
 11 13  1  0  0  0  0
 11 14  2  0  0  0  0
 12 27  1  0  0  0  0
 13 23  1  0  0  0  0
 14 24  1  0  0  0  0
 15 31  2  0  0  0  0
 16 32  1  0  0  0  0
 17 20  1  0  0  0  0
 17 31  1  0  0  0  0
 18 25  1  0  0  0  0
 18 32  1  0  0  0  0
 19 33  1  0  0  0  0
 19 35  2  0  0  0  0
 19 38  1  0  0  0  0
 20 34  1  0  0  0  0
 20 36  2  0  0  0  0
 21 22  1  0  0  0  0
 21 33  1  0  0  0  0
 22 38  1  0  0  0  0
 26 39  1  0  0  0  0
 27 33  1  0  0  0  0
 28 29  1  0  0  0  0
 28 34  1  0  0  0  0
 29 39  1  0  0  0  0
 30 32  1  0  0  0  0
 37 39  2  0  0  0  0
  1 40  1  0  0  0  0
  2 41  1  0  0  0  0
  3 42  1  0  0  0  0
  4 43  1  0  0  0  0
  5 44  1  0  0  0  0
  6 45  1  0  0  0  0
  7 46  1  0  0  0  0
  8 47  1  0  0  0  0
 21 48  1  0  0  0  0
 21 49  1  0  0  0  0
 22 50  1  0  0  0  0
 22 51  1  0  0  0  0
 23 52  1  0  0  0  0
 23 53  1  0  0  0  0
 23 54  1  0  0  0  0
 24 55  1  0  0  0  0
 24 56  1  0  0  0  0
 24 57  1  0  0  0  0
 25 58  1  0  0  0  0
 25 59  1  0  0  0  0
 25 60  1  0  0  0  0
 26 61  1  0  0  0  0
 26 62  1  0  0  0  0
 26 63  1  0  0  0  0
 27 64  1  0  0  0  0
 27 65  1  0  0  0  0
 28 66  1  0  0  0  0
 28 67  1  0  0  0  0
 29 68  1  0  0  0  0
 29 69  1  0  0  0  0
 34 70  1  0  0  0  0
M  END
> <SMILES>
CS(=O)CCNC(=O)c1cc(c2c(c(c(cc2n1)C)-c1ccc(cc1)CN1CCOC1=O)C)-n1nccc1C

> <FORMATTED_ID>
H3D-006945

> <MOLFORMULA>
C29H31N5O4S

> <Exact Mass>
545.21

> <XLogP>
2.56

> <TPSA_NOPS>
125.6

> <s_m_source_file>
ligprep_h3d.sdf

> <i_m_source_file_index>
1108

> <i_lp_mmshare_version>
55123

> <i_f3d_flags>
0

> <s_epik_input>
W0NIM11jMVtjSF1bY0hdbm4xLWMyW2NIXWMoQyg9TylbTkhdW0NIMl1bQ0gyXVtTQF0oPU8pW0NIM10pbmMoYzIzKVtjSF1jKFtDSDNdKWMoYzNbQ0gzXSktYzRbY0hdW2NIXWMoW2NIXVtjSF00KVtDSDJdTjVbQ0gyXVtDSDJdT0M1PU8=

> <s_epik_cmdline>
J2VwaWtfcHl0aG9uJywgJy1waHQnLCAnMC41JywgJy1waCcsICc3LjUnLCAnLXRuJywgJzgnLCAnLW1hJywgJzUwMCcsICctaW1hZScsICc8aW5maWxlLm1hZT4nLCAnLW9tYWUnLCAnPG91dGZpbGUubWFlPic=

> <r_lp_tautomer_probability>
1

> <r_epik_Ionization_Penalty>
2.25561e-05

> <r_epik_Ionization_Penalty_Charging>
0

> <r_epik_Ionization_Penalty_Neutral>
2.25561e-05

> <r_epik_State_Penalty>
-0

> <r_epik_Charging_Adjusted_Penalty>
0

> <i_epik_Tot_Q>
0

> <i_epik_Tot_abs_Q>
0

> <s_epik_Chemistry_Notes>
This compound has an ester and may undergo hydrolysis at high or low pH.

> <s_lp_Force_Field>
S-OPLS

> <r_lp_Energy>
37.8672

> <b_lp_Chiralities_Consistent>
1

> <s_lp_Variant>
ligprep_h3d.sdf:1108-1

> <ROCS_ShapeQuery>
_7L13

> <ROCS_TanimotoCombo>
0.701 

> <ROCS_ShapeTanimoto>
0.588 

> <ROCS_ColorTanimoto>
0.113 

> <ROCS_RefTversky>
0.767 

> <ROCS_RefColorTversky>
0.223 

> <ROCS_RefTverskyCombo>
0.989 

> <ROCS_FitTversky>
0.717 

> <ROCS_FitColorTversky>
0.186 

> <ROCS_FitTverskyCombo>
0.903 

> <ROCS_ColorScore>
-2.025

> <ROCS_Overlap>
1278.021

> <ROCS_Rank>
592                 

$$$$
ligprep_h3d.sdf:1012_1807
  -OEChem-08212117123D

 73 77  0     1  0  0  0  0  0999 V2000
  -20.1181   -3.9257  -32.2490 C   0  0  0  0  0  0  0  0  0  0  0  0
  -20.9174   -6.2021  -32.1219 C   0  0  0  0  0  0  0  0  0  0  0  0
  -19.6103   -4.1751  -33.5240 C   0  0  0  0  0  0  0  0  0  0  0  0
  -20.4097   -6.4516  -33.3969 C   0  0  0  0  0  0  0  0  0  0  0  0
  -16.7844   -5.4105  -26.6743 C   0  0  0  0  0  0  0  0  0  0  0  0
  -23.1176   -3.9624  -28.8121 C   0  0  0  0  0  0  0  0  0  0  0  0
  -20.8186   -4.5790  -25.4056 C   0  0  0  0  0  0  0  0  0  0  0  0
  -17.3868   -6.6808  -26.6014 C   0  0  0  0  0  0  0  0  0  0  0  0
  -21.0387   -4.6364  -27.8125 C   0  0  0  0  0  0  0  0  0  0  0  0
  -20.7716   -4.9392  -31.5479 C   0  0  0  0  0  0  0  0  0  0  0  0
  -21.2980   -4.6805  -30.2254 C   0  0  0  0  0  0  0  0  0  0  0  0
  -19.7562   -5.4380  -34.0979 C   0  0  0  0  0  0  0  0  0  0  0  0
  -22.5997   -4.2155  -30.0847 C   0  0  0  0  0  0  0  0  0  0  0  0
  -20.5175   -4.8911  -29.0924 C   0  0  0  0  0  0  0  0  0  0  0  0
  -22.3595   -4.1644  -27.6621 C   0  0  0  0  0  0  0  0  0  0  0  0
  -20.2750   -4.8397  -26.6551 C   0  0  0  0  0  0  0  0  0  0  0  0
  -22.1193   -4.1198  -25.3587 C   0  0  0  0  0  0  0  0  0  0  0  0
  -17.8393   -4.5314  -26.7045 C   0  0  0  0  0  0  0  0  0  0  0  0
  -22.7493   -3.8289  -24.0823 C   0  0  0  0  0  0  0  0  0  0  0  0
  -17.4719   -7.2987  -35.0225 C   0  0  0  0  0  0  0  0  0  0  0  0
  -17.0331   -8.7507  -35.1606 C   0  0  0  0  0  0  0  0  0  0  0  0
  -18.2802   -8.9833  -37.1332 C   0  0  0  0  0  0  0  0  0  0  0  0
  -18.7728   -7.5288  -37.0503 C   0  0  1  0  0  0  0  0  0  0  0  0
  -23.4809   -3.9710  -31.2685 C   0  0  0  0  0  0  0  0  0  0  0  0
  -19.1200   -5.3946  -29.3226 C   0  0  0  0  0  0  0  0  0  0  0  0
  -17.8585   -3.0573  -26.7790 C   0  0  0  0  0  0  0  0  0  0  0  0
  -20.1464   -7.4362  -37.7230 C   0  0  0  0  0  0  0  0  0  0  0  0
  -19.2094   -5.7066  -35.4702 C   0  0  0  0  0  0  0  0  0  0  0  0
  -24.9099   -3.7291  -22.8125 C   0  0  0  0  0  0  0  0  0  0  0  0
  -25.6142   -4.9967  -22.3643 C   0  0  0  0  0  0  0  0  0  0  0  0
  -18.7210   -6.6186  -26.5861 N   0  0  0  0  0  0  0  0  0  0  0  0
  -22.8897   -3.9104  -26.4508 N   0  0  0  0  0  0  0  0  0  0  0  0
  -18.9656   -5.2987  -26.6496 N   0  0  0  0  0  0  0  0  0  0  0  0
  -18.7982   -7.1029  -35.6327 N   0  0  2  0  0  0  0  0  0  0  0  0
  -24.1371   -3.9992  -24.0035 N   0  0  0  0  0  0  0  0  0  0  0  0
  -22.0713   -3.4271  -23.1190 O   0  0  0  0  0  0  0  0  0  0  0  0
  -16.9905   -9.1184  -36.5370 O   0  0  0  0  0  0  0  0  0  0  0  0
  -24.6488   -6.0111  -22.1175 O   0  0  0  0  0  0  0  0  0  0  0  0
  -19.9959   -2.9362  -31.8148 H   0  0  0  0  0  0  0  0  0  0  0  0
  -21.4249   -7.0023  -31.5883 H   0  0  0  0  0  0  0  0  0  0  0  0
  -19.1016   -3.3800  -34.0624 H   0  0  0  0  0  0  0  0  0  0  0  0
  -20.5283   -7.4384  -33.8368 H   0  0  0  0  0  0  0  0  0  0  0  0
  -15.7320   -5.1684  -26.7006 H   0  0  0  0  0  0  0  0  0  0  0  0
  -24.1400   -3.5981  -28.7168 H   0  0  0  0  0  0  0  0  0  0  0  0
  -20.2485   -4.7281  -24.4927 H   0  0  0  0  0  0  0  0  0  0  0  0
  -16.9092   -7.6491  -26.5586 H   0  0  0  0  0  0  0  0  0  0  0  0
  -17.5020   -7.0415  -33.9574 H   0  0  0  0  0  0  0  0  0  0  0  0
  -16.7336   -6.6469  -35.5079 H   0  0  0  0  0  0  0  0  0  0  0  0
  -16.0258   -8.8765  -34.7508 H   0  0  0  0  0  0  0  0  0  0  0  0
  -17.6996   -9.4310  -34.6165 H   0  0  0  0  0  0  0  0  0  0  0  0
  -18.9779   -9.6796  -36.6503 H   0  0  0  0  0  0  0  0  0  0  0  0
  -18.1851   -9.2902  -38.1805 H   0  0  0  0  0  0  0  0  0  0  0  0
  -18.0659   -6.8945  -37.6028 H   0  0  0  0  0  0  0  0  0  0  0  0
  -23.3622   -2.9408  -31.6210 H   0  0  0  0  0  0  0  0  0  0  0  0
  -23.2358   -4.6541  -32.0899 H   0  0  0  0  0  0  0  0  0  0  0  0
  -24.5347   -4.1371  -31.0161 H   0  0  0  0  0  0  0  0  0  0  0  0
  -19.1160   -6.4875  -29.3251 H   0  0  0  0  0  0  0  0  0  0  0  0
  -18.7315   -5.0336  -30.2789 H   0  0  0  0  0  0  0  0  0  0  0  0
  -18.4460   -5.0364  -28.5394 H   0  0  0  0  0  0  0  0  0  0  0  0
  -17.8776   -2.7127  -27.8259 H   0  0  0  0  0  0  0  0  0  0  0  0
  -18.7379   -2.6286  -26.2689 H   0  0  0  0  0  0  0  0  0  0  0  0
  -16.9754   -2.6071  -26.2939 H   0  0  0  0  0  0  0  0  0  0  0  0
  -20.8574   -8.0596  -37.1866 H   0  0  0  0  0  0  0  0  0  0  0  0
  -20.0716   -7.7785  -38.7521 H   0  0  0  0  0  0  0  0  0  0  0  0
  -20.4894   -6.4047  -37.7099 H   0  0  0  0  0  0  0  0  0  0  0  0
  -19.9613   -5.4852  -36.2355 H   0  0  0  0  0  0  0  0  0  0  0  0
  -18.3391   -5.0751  -35.6770 H   0  0  0  0  0  0  0  0  0  0  0  0
  -25.6285   -2.9360  -23.0425 H   0  0  0  0  0  0  0  0  0  0  0  0
  -24.2257   -3.3779  -22.0342 H   0  0  0  0  0  0  0  0  0  0  0  0
  -26.2839   -5.3524  -23.1534 H   0  0  0  0  0  0  0  0  0  0  0  0
  -26.1945   -4.8331  -21.4504 H   0  0  0  0  0  0  0  0  0  0  0  0
  -24.6510   -4.2684  -24.8361 H   0  0  0  0  0  0  0  0  0  0  0  0
  -25.1386   -6.8001  -21.8347 H   0  0  0  0  0  0  0  0  0  0  0  0
  1  3  1  0  0  0  0
  1 10  2  0  0  0  0
  2  4  2  0  0  0  0
  2 10  1  0  0  0  0
  3 12  2  0  0  0  0
  4 12  1  0  0  0  0
  5  8  1  0  0  0  0
  5 18  2  0  0  0  0
  6 13  1  0  0  0  0
  6 15  2  0  0  0  0
  7 16  2  0  0  0  0
  7 17  1  0  0  0  0
  8 31  2  0  0  0  0
  9 14  2  0  0  0  0
  9 15  1  0  0  0  0
  9 16  1  0  0  0  0
 10 11  1  0  0  0  0
 11 13  2  0  0  0  0
 11 14  1  0  0  0  0
 12 28  1  0  0  0  0
 13 24  1  0  0  0  0
 14 25  1  0  0  0  0
 15 32  1  0  0  0  0
 16 33  1  0  0  0  0
 17 19  1  0  0  0  0
 17 32  2  0  0  0  0
 18 26  1  0  0  0  0
 18 33  1  0  0  0  0
 19 35  1  0  0  0  0
 19 36  2  0  0  0  0
 20 21  1  0  0  0  0
 20 34  1  0  0  0  0
 21 37  1  0  0  0  0
 22 23  1  0  0  0  0
 22 37  1  0  0  0  0
 23 27  1  0  0  0  0
 23 34  1  0  0  0  0
 28 34  1  0  0  0  0
 29 30  1  0  0  0  0
 29 35  1  0  0  0  0
 30 38  1  0  0  0  0
 31 33  1  0  0  0  0
  1 39  1  0  0  0  0
  2 40  1  0  0  0  0
  3 41  1  0  0  0  0
  4 42  1  0  0  0  0
  5 43  1  0  0  0  0
  6 44  1  0  0  0  0
  7 45  1  0  0  0  0
  8 46  1  0  0  0  0
 20 47  1  0  0  0  0
 20 48  1  0  0  0  0
 21 49  1  0  0  0  0
 21 50  1  0  0  0  0
 22 51  1  0  0  0  0
 22 52  1  0  0  0  0
 23 53  1  0  0  0  0
 24 54  1  0  0  0  0
 24 55  1  0  0  0  0
 24 56  1  0  0  0  0
 25 57  1  0  0  0  0
 25 58  1  0  0  0  0
 25 59  1  0  0  0  0
 26 60  1  0  0  0  0
 26 61  1  0  0  0  0
 26 62  1  0  0  0  0
 27 63  1  0  0  0  0
 27 64  1  0  0  0  0
 27 65  1  0  0  0  0
 28 66  1  0  0  0  0
 28 67  1  0  0  0  0
 29 68  1  0  0  0  0
 29 69  1  0  0  0  0
 30 70  1  0  0  0  0
 30 71  1  0  0  0  0
 35 72  1  0  0  0  0
 38 73  1  0  0  0  0
M  END
> <SMILES>
C[C@@H]1COCCN1Cc1ccc(cc1)-c1c(cc2nc(cc(c2c1C)-n1nccc1C)C(=O)NCCO)C

> <FORMATTED_ID>
H3D-006176

> <MOLFORMULA>
C30H35N5O3

> <Exact Mass>
513.27

> <XLogP>
3.53

> <TPSA_NOPS>
92.5

> <s_m_source_file>
ligprep_h3d.sdf

> <i_m_source_file_index>
1012

> <i_lp_mmshare_version>
55123

> <i_f3d_flags>
0

> <s_epik_input>
W0NIM11bQ0BASF0xW0NIMl1PW0NIMl1bQ0gyXU4xW0NIMl1jMltjSF1bY0hdYyhbY0hdW2NIXTIpLWMoYyhbY0hdMylbQ0gzXSljKFtDSDNdKWMoYzM0KWMoLW41bltjSF1bY0hdYzVbQ0gzXSlbY0hdYyhuNClDKD1PKVtOSF1bQ0gyXVtDSDJdW09IXQ==

> <s_epik_cmdline>
J2VwaWtfcHl0aG9uJywgJy1waHQnLCAnMC41JywgJy1waCcsICc3LjUnLCAnLXRuJywgJzgnLCAnLW1hJywgJzUwMCcsICctaW1hZScsICc8aW5maWxlLm1hZT4nLCAnLW9tYWUnLCAnPG91dGZpbGUubWFlPic=

> <r_lp_tautomer_probability>
1

> <r_epik_Ionization_Penalty>
0.10556

> <r_epik_Ionization_Penalty_Charging>
0

> <r_epik_Ionization_Penalty_Neutral>
0.10556

> <r_epik_State_Penalty>
0.095414

> <r_epik_Charging_Adjusted_Penalty>
0.095414

> <i_epik_Tot_Q>
0

> <i_epik_Tot_abs_Q>
0

> <s_lp_Force_Field>
S-OPLS

> <r_lp_Energy>
63.8924

> <b_lp_Chiralities_Consistent>
1

> <s_lp_Variant>
ligprep_h3d.sdf:1012-1

> <ROCS_ShapeQuery>
_7L13

> <ROCS_TanimotoCombo>
0.698 

> <ROCS_ShapeTanimoto>
0.597 

> <ROCS_ColorTanimoto>
0.101 

> <ROCS_RefTversky>
0.767 

> <ROCS_RefColorTversky>
0.220 

> <ROCS_RefTverskyCombo>
0.987 

> <ROCS_FitTversky>
0.730 

> <ROCS_FitColorTversky>
0.158 

> <ROCS_FitTverskyCombo>
0.888 

> <ROCS_ColorScore>
-2.025

> <ROCS_Overlap>
1276.626

> <ROCS_Rank>
593                 

$$$$
ligprep_h3d.sdf:2205_1488
  -OEChem-08212117123D

 68 72  0     1  0  0  0  0  0999 V2000
  -17.7311   -9.0539  -36.0902 C   0  0  0  0  0  0  0  0  0  0  0  0
  -16.6478   -6.7410  -26.3961 C   0  0  0  0  0  0  0  0  0  0  0  0
  -24.6153   -4.4854  -22.8822 C   0  0  0  0  0  0  0  0  0  0  0  0
  -25.6369   -5.0205  -23.6955 C   0  0  0  0  0  0  0  0  0  0  0  0
  -18.9012   -6.9075  -36.0288 C   0  0  0  0  0  0  0  0  0  0  0  0
  -19.5781   -8.6793  -34.5323 C   0  0  0  0  0  0  0  0  0  0  0  0
  -19.0145   -6.3624  -25.9109 C   0  0  0  0  0  0  0  0  0  0  0  0
  -17.5055   -4.4797  -26.0356 C   0  0  0  0  0  0  0  0  0  0  0  0
  -19.8915   -6.0809  -35.4981 C   0  0  0  0  0  0  0  0  0  0  0  0
  -20.5684   -7.8527  -34.0016 C   0  0  0  0  0  0  0  0  0  0  0  0
  -20.0720   -5.4964  -25.6327 C   0  0  0  0  0  0  0  0  0  0  0  0
  -18.5630   -3.6137  -25.7574 C   0  0  0  0  0  0  0  0  0  0  0  0
  -23.4073   -4.0205  -23.4215 C   0  0  0  0  0  0  0  0  0  0  0  0
  -25.5004   -5.1169  -25.0878 C   0  0  0  0  0  0  0  0  0  0  0  0
  -18.7446   -8.2067  -35.5459 C   0  0  0  0  0  0  0  0  0  0  0  0
  -17.7312   -5.8541  -26.1123 C   0  0  0  0  0  0  0  0  0  0  0  0
  -20.7251   -6.5535  -34.4845 C   0  0  0  0  0  0  0  0  0  0  0  0
  -19.8462   -4.1220  -25.5560 C   0  0  0  0  0  0  0  0  0  0  0  0
  -23.2868   -4.1224  -24.8024 C   0  0  0  0  0  0  0  0  0  0  0  0
  -24.2981   -4.6521  -25.6074 C   0  0  0  0  0  0  0  0  0  0  0  0
  -22.6012   -4.0599  -26.9167 C   0  0  0  0  0  0  0  0  0  0  0  0
  -22.9150   -4.8691  -29.9867 C   0  0  0  0  0  0  0  0  0  0  0  0
  -21.3892   -2.8741  -30.2376 C   0  0  0  0  0  0  0  0  0  0  0  0
  -23.4571   -4.6210  -31.3872 C   0  0  0  0  0  0  0  0  0  0  0  0
  -21.9403   -2.6384  -31.6369 C   0  0  0  0  0  0  0  0  0  0  0  0
  -22.4051   -3.5807  -29.3376 C   0  0  0  0  0  0  0  0  0  0  0  0
  -20.8535   -1.7463  -25.7866 C   0  0  0  0  0  0  0  0  0  0  0  0
  -21.7900   -5.6632  -33.9121 C   0  0  0  0  0  0  0  0  0  0  0  0
  -21.3246   -4.8330  -32.7201 C   0  0  0  0  0  0  0  0  0  0  0  0
  -20.9989   -3.1781  -25.2545 C   0  0  1  0  0  0  0  0  0  0  0  0
  -16.9078   -9.7420  -36.5323 N   0  0  0  0  0  0  0  0  0  0  0  0
  -15.7677   -7.4615  -26.6266 N   0  0  0  0  0  0  0  0  0  0  0  0
  -22.2613   -3.7714  -25.6563 N   0  0  0  0  0  0  0  0  0  0  0  0
  -23.8277   -4.5922  -26.9032 N   0  3  0  0  0  0  0  0  0  0  0  0
  -21.8365   -3.8523  -28.0390 N   0  0  0  0  0  0  0  0  0  0  0  0
  -22.4303   -3.9277  -32.2482 N   0  3  0  0  0  0  0  0  0  0  0  0
  -24.7696   -4.4325  -21.8066 H   0  0  0  0  0  0  0  0  0  0  0  0
  -26.5562   -5.3674  -23.2287 H   0  0  0  0  0  0  0  0  0  0  0  0
  -18.2605   -6.5254  -36.8200 H   0  0  0  0  0  0  0  0  0  0  0  0
  -19.4677   -9.6891  -34.1440 H   0  0  0  0  0  0  0  0  0  0  0  0
  -19.2059   -7.4314  -25.9655 H   0  0  0  0  0  0  0  0  0  0  0  0
  -16.5113   -4.0677  -26.1917 H   0  0  0  0  0  0  0  0  0  0  0  0
  -20.0069   -5.0704  -35.8810 H   0  0  0  0  0  0  0  0  0  0  0  0
  -21.2121   -8.2287  -33.2107 H   0  0  0  0  0  0  0  0  0  0  0  0
  -21.0683   -5.9014  -25.4763 H   0  0  0  0  0  0  0  0  0  0  0  0
  -18.3782   -2.5441  -25.7015 H   0  0  0  0  0  0  0  0  0  0  0  0
  -22.6191   -3.6088  -22.8040 H   0  0  0  0  0  0  0  0  0  0  0  0
  -26.2758   -5.5258  -25.7229 H   0  0  0  0  0  0  0  0  0  0  0  0
  -23.7084   -5.2934  -29.3661 H   0  0  0  0  0  0  0  0  0  0  0  0
  -22.1101   -5.6051  -30.0375 H   0  0  0  0  0  0  0  0  0  0  0  0
  -20.4757   -3.4700  -30.3065 H   0  0  0  0  0  0  0  0  0  0  0  0
  -21.1188   -1.9130  -29.7906 H   0  0  0  0  0  0  0  0  0  0  0  0
  -23.7330   -5.5609  -31.8921 H   0  0  0  0  0  0  0  0  0  0  0  0
  -24.3452   -3.9711  -31.3469 H   0  0  0  0  0  0  0  0  0  0  0  0
  -22.7979   -1.9478  -31.5986 H   0  0  0  0  0  0  0  0  0  0  0  0
  -21.1835   -2.2143  -32.3167 H   0  0  0  0  0  0  0  0  0  0  0  0
  -23.2549   -2.9055  -29.1724 H   0  0  0  0  0  0  0  0  0  0  0  0
  -20.8011   -1.7047  -26.8796 H   0  0  0  0  0  0  0  0  0  0  0  0
  -19.9484   -1.2739  -25.3892 H   0  0  0  0  0  0  0  0  0  0  0  0
  -21.7122   -1.1363  -25.4833 H   0  0  0  0  0  0  0  0  0  0  0  0
  -22.1316   -4.9774  -34.6988 H   0  0  0  0  0  0  0  0  0  0  0  0
  -22.6717   -6.2545  -33.6328 H   0  0  0  0  0  0  0  0  0  0  0  0
  -20.4928   -4.1809  -33.0024 H   0  0  0  0  0  0  0  0  0  0  0  0
  -21.0290   -5.4474  -31.8643 H   0  0  0  0  0  0  0  0  0  0  0  0
  -21.0391   -3.0743  -24.1605 H   0  0  0  0  0  0  0  0  0  0  0  0
  -24.3369   -4.9062  -27.7250 H   0  0  0  0  0  0  0  0  0  0  0  0
  -20.8350   -3.8874  -27.9782 H   0  0  0  0  0  0  0  0  0  0  0  0
  -22.9478   -3.6433  -33.1302 H   0  0  0  0  0  0  0  0  0  0  0  0
  1 15  1  0  0  0  0
  1 31  3  0  0  0  0
  2 16  1  0  0  0  0
  2 32  3  0  0  0  0
  3  4  2  0  0  0  0
  3 13  1  0  0  0  0
  4 14  1  0  0  0  0
  5  9  1  0  0  0  0
  5 15  2  0  0  0  0
  6 10  2  0  0  0  0
  6 15  1  0  0  0  0
  7 11  1  0  0  0  0
  7 16  2  0  0  0  0
  8 12  2  0  0  0  0
  8 16  1  0  0  0  0
  9 17  2  0  0  0  0
 10 17  1  0  0  0  0
 11 18  2  0  0  0  0
 12 18  1  0  0  0  0
 13 19  2  0  0  0  0
 14 20  2  0  0  0  0
 17 28  1  0  0  0  0
 18 30  1  0  0  0  0
 19 20  1  0  0  0  0
 19 33  1  0  0  0  0
 20 34  1  0  0  0  0
 21 33  1  0  0  0  0
 21 34  2  0  0  0  0
 21 35  1  0  0  0  0
 22 24  1  0  0  0  0
 22 26  1  0  0  0  0
 23 25  1  0  0  0  0
 23 26  1  0  0  0  0
 24 36  1  0  0  0  0
 25 36  1  0  0  0  0
 26 35  1  0  0  0  0
 27 30  1  0  0  0  0
 28 29  1  0  0  0  0
 29 36  1  0  0  0  0
 30 33  1  0  0  0  0
  3 37  1  0  0  0  0
  4 38  1  0  0  0  0
  5 39  1  0  0  0  0
  6 40  1  0  0  0  0
  7 41  1  0  0  0  0
  8 42  1  0  0  0  0
  9 43  1  0  0  0  0
 10 44  1  0  0  0  0
 11 45  1  0  0  0  0
 12 46  1  0  0  0  0
 13 47  1  0  0  0  0
 14 48  1  0  0  0  0
 22 49  1  0  0  0  0
 22 50  1  0  0  0  0
 23 51  1  0  0  0  0
 23 52  1  0  0  0  0
 24 53  1  0  0  0  0
 24 54  1  0  0  0  0
 25 55  1  0  0  0  0
 25 56  1  0  0  0  0
 26 57  1  0  0  0  0
 27 58  1  0  0  0  0
 27 59  1  0  0  0  0
 27 60  1  0  0  0  0
 28 61  1  0  0  0  0
 28 62  1  0  0  0  0
 29 63  1  0  0  0  0
 29 64  1  0  0  0  0
 30 65  1  0  0  0  0
 34 66  1  0  0  0  0
 35 67  1  0  0  0  0
 36 68  1  0  0  0  0
M  CHG  2  34   1  36   1
M  END
> <SMILES>
CC(c1ccc(cc1)C#N)n1c(nc2ccccc12)NC1CCN(CC1)CCc1ccc(cc1)C#N

> <FORMATTED_ID>
H3D-004825

> <MOLFORMULA>
C30H30N6

> <Exact Mass>
474.25

> <XLogP>
6.74

> <TPSA_NOPS>
80.7

> <s_m_source_file>
ligprep_h3d.sdf

> <i_m_source_file_index>
2205

> <i_lp_mmshare_version>
55123

> <i_f3d_flags>
0

> <s_epik_input>
W2NIXTFbY0hdYyhDI04pW2NIXVtjSF1jMVtDQEBIXShbQ0gzXSluKGMoYzIzKVtjSF1bY0hdW2NIXVtjSF0zKWMobjIpW05IXVtDSF00W0NIMl1bQ0gyXU4oW0NIMl1bQ0gyXTQpW0NIMl1bQ0gyXWM1W2NIXVtjSF1jKEMjTilbY0hdW2NIXTU=

> <s_epik_cmdline>
J2VwaWtfcHl0aG9uJywgJy1waHQnLCAnMC41JywgJy1waCcsICc3LjUnLCAnLXRuJywgJzgnLCAnLW1hJywgJzUwMCcsICctaW1hZScsICc8aW5maWxlLm1hZT4nLCAnLW9tYWUnLCAnPG91dGZpbGUubWFlPic=

> <r_epik_Ionization_Penalty>
0.613674

> <r_epik_Ionization_Penalty_Charging>
0.613659

> <r_epik_Ionization_Penalty_Neutral>
1.55377e-05

> <r_epik_State_Penalty>
0.610172

> <r_epik_Charging_Adjusted_Penalty>
1.22383

> <i_epik_Tot_Q>
2

> <i_epik_Tot_abs_Q>
2

> <s_lp_Force_Field>
S-OPLS

> <r_lp_Energy>
54.6406

> <b_lp_Chiralities_Consistent>
1

> <s_lp_Variant>
ligprep_h3d.sdf:2205-2

> <ROCS_ShapeQuery>
_7L13

> <ROCS_TanimotoCombo>
0.726 

> <ROCS_ShapeTanimoto>
0.628 

> <ROCS_ColorTanimoto>
0.098 

> <ROCS_RefTversky>
0.767 

> <ROCS_RefColorTversky>
0.205 

> <ROCS_RefTverskyCombo>
0.971 

> <ROCS_FitTversky>
0.777 

> <ROCS_FitColorTversky>
0.158 

> <ROCS_FitTverskyCombo>
0.935 

> <ROCS_ColorScore>
-1.873

> <ROCS_Overlap>
1272.032

> <ROCS_Rank>
594                 

$$$$
ligprep_h3d.sdf:511_34
  -OEChem-08212117123D

 58 63  0     1  0  0  0  0  0999 V2000
  -19.2580   -5.7690  -35.6125 C   0  0  0  0  0  0  0  0  0  0  0  0
  -20.9946   -5.1691  -29.4976 C   0  0  0  0  0  0  0  0  0  0  0  0
  -21.7526   -4.3986  -30.3815 C   0  0  0  0  0  0  0  0  0  0  0  0
  -21.1050   -4.9193  -28.1080 C   0  0  0  0  0  0  0  0  0  0  0  0
  -21.9848   -3.9465  -27.5779 C   0  0  0  0  0  0  0  0  0  0  0  0
  -22.5813   -3.4292  -29.8612 C   0  0  0  0  0  0  0  0  0  0  0  0
  -22.7260   -3.1680  -28.4984 C   0  0  0  0  0  0  0  0  0  0  0  0
  -21.9446   -4.2932  -31.7716 C   0  0  0  0  0  0  0  0  0  0  0  0
  -18.9203   -3.8941  -26.1938 C   0  0  0  0  0  0  0  0  0  0  0  0
  -19.3123   -6.1472  -25.0037 C   0  0  0  0  0  0  0  0  0  0  0  0
  -17.0359   -5.4375  -25.7055 C   0  0  0  0  0  0  0  0  0  0  0  0
  -20.2577   -5.7549  -27.1858 C   0  0  0  0  0  0  0  0  0  0  0  0
  -20.7202   -6.9662  -33.9952 C   0  0  0  0  0  0  0  0  0  0  0  0
  -21.3838   -6.5619  -32.6804 C   0  0  0  0  0  0  0  0  0  0  0  0
  -20.3898   -4.6140  -33.7154 C   0  0  0  0  0  0  0  0  0  0  0  0
  -23.0271   -2.7699  -25.6512 C   0  0  0  0  0  0  0  0  0  0  0  0
  -19.6770   -5.8755  -34.2131 C   0  0  2  0  0  0  0  0  0  0  0  0
  -21.2294   -4.4878  -25.2284 C   0  0  2  0  0  0  0  0  0  0  0  0
  -23.4073   -3.0673  -24.1980 C   0  0  1  0  0  0  0  0  0  0  0  0
  -21.0450   -3.5518  -23.9985 C   0  0  2  0  0  0  0  0  0  0  0  0
  -19.9110   -5.0231  -25.8652 C   0  0  0  0  0  0  0  0  0  0  0  0
  -24.4213   -4.2032  -24.0759 C   0  0  0  0  0  0  0  0  0  0  0  0
  -20.1039   -4.0517  -22.9090 C   0  0  0  0  0  0  0  0  0  0  0  0
  -18.9262   -5.6845  -36.7211 N   0  0  0  0  0  0  0  0  0  0  0  0
  -22.8200   -3.3353  -32.0912 N   0  0  0  0  0  0  0  0  0  0  0  0
  -17.5856   -4.2675  -26.2093 N   0  0  0  0  0  0  0  0  0  0  0  0
  -17.9382   -6.3015  -25.1016 N   0  0  0  0  0  0  0  0  0  0  0  0
  -22.0935   -3.7633  -26.1973 N   0  0  3  0  0  0  0  0  0  0  0  0
  -21.2791   -5.1056  -32.6649 N   0  0  0  0  0  0  0  0  0  0  0  0
  -19.2719   -2.7516  -26.4875 O   0  0  0  0  0  0  0  0  0  0  0  0
  -20.0037   -6.9202  -24.3391 O   0  0  0  0  0  0  0  0  0  0  0  0
  -15.8275   -5.6736  -25.7543 O   0  0  0  0  0  0  0  0  0  0  0  0
  -23.2202   -2.7878  -30.8777 O   0  0  0  0  0  0  0  0  0  0  0  0
  -22.3036   -3.3507  -23.3435 O   0  0  0  0  0  0  0  0  0  0  0  0
  -23.4830   -2.1244  -28.1396 F   0  0  0  0  0  0  0  0  0  0  0  0
  -20.3253   -5.9400  -29.8692 H   0  0  0  0  0  0  0  0  0  0  0  0
  -20.8092   -6.6834  -26.9838 H   0  0  0  0  0  0  0  0  0  0  0  0
  -19.3323   -6.0452  -27.7021 H   0  0  0  0  0  0  0  0  0  0  0  0
  -20.2737   -7.9644  -33.9413 H   0  0  0  0  0  0  0  0  0  0  0  0
  -21.4637   -6.9732  -34.8027 H   0  0  0  0  0  0  0  0  0  0  0  0
  -22.4241   -6.9043  -32.6394 H   0  0  0  0  0  0  0  0  0  0  0  0
  -20.8395   -6.9797  -31.8249 H   0  0  0  0  0  0  0  0  0  0  0  0
  -19.6716   -3.8797  -33.3300 H   0  0  0  0  0  0  0  0  0  0  0  0
  -20.9830   -4.1350  -34.5054 H   0  0  0  0  0  0  0  0  0  0  0  0
  -23.9383   -2.7924  -26.2841 H   0  0  0  0  0  0  0  0  0  0  0  0
  -22.6893   -1.7232  -25.6964 H   0  0  0  0  0  0  0  0  0  0  0  0
  -18.8053   -6.0750  -33.5770 H   0  0  0  0  0  0  0  0  0  0  0  0
  -21.8297   -5.3498  -24.8981 H   0  0  0  0  0  0  0  0  0  0  0  0
  -23.9321   -2.1443  -23.7689 H   0  0  0  0  0  0  0  0  0  0  0  0
  -20.6744   -2.5592  -24.3139 H   0  0  0  0  0  0  0  0  0  0  0  0
  -23.9952   -5.1274  -24.4666 H   0  0  0  0  0  0  0  0  0  0  0  0
  -25.3214   -3.9622  -24.6416 H   0  0  0  0  0  0  0  0  0  0  0  0
  -24.6903   -4.3524  -23.0300 H   0  0  0  0  0  0  0  0  0  0  0  0
  -20.4255   -5.0331  -22.5603 H   0  0  0  0  0  0  0  0  0  0  0  0
  -20.1065   -3.3589  -22.0676 H   0  0  0  0  0  0  0  0  0  0  0  0
  -19.0894   -4.1300  -23.2999 H   0  0  0  0  0  0  0  0  0  0  0  0
  -16.9384   -3.6121  -26.6369 H   0  0  0  0  0  0  0  0  0  0  0  0
  -17.5409   -7.1113  -24.6341 H   0  0  0  0  0  0  0  0  0  0  0  0
  1 17  1  0  0  0  0
  1 24  3  0  0  0  0
  2  3  2  0  0  0  0
  2  4  1  0  0  0  0
  3  6  1  0  0  0  0
  3  8  1  0  0  0  0
  4  5  2  0  0  0  0
  4 12  1  0  0  0  0
  5  7  1  0  0  0  0
  5 28  1  0  0  0  0
  6  7  2  0  0  0  0
  6 33  1  0  0  0  0
  7 35  1  0  0  0  0
  8 25  2  0  0  0  0
  8 29  1  0  0  0  0
  9 21  1  0  0  0  0
  9 26  1  0  0  0  0
  9 30  2  0  0  0  0
 10 21  1  0  0  0  0
 10 27  1  0  0  0  0
 10 31  2  0  0  0  0
 11 26  1  0  0  0  0
 11 27  1  0  0  0  0
 11 32  2  0  0  0  0
 12 21  1  0  0  0  0
 13 14  1  0  0  0  0
 13 17  1  0  0  0  0
 14 29  1  0  0  0  0
 15 17  1  0  0  0  0
 15 29  1  0  0  0  0
 16 19  1  0  0  0  0
 16 28  1  0  0  0  0
 18 20  1  0  0  0  0
 18 21  1  0  0  0  0
 18 28  1  0  0  0  0
 19 22  1  0  0  0  0
 19 34  1  0  0  0  0
 20 23  1  0  0  0  0
 20 34  1  0  0  0  0
 25 33  1  0  0  0  0
  2 36  1  0  0  0  0
 12 37  1  0  0  0  0
 12 38  1  0  0  0  0
 13 39  1  0  0  0  0
 13 40  1  0  0  0  0
 14 41  1  0  0  0  0
 14 42  1  0  0  0  0
 15 43  1  0  0  0  0
 15 44  1  0  0  0  0
 16 45  1  0  0  0  0
 16 46  1  0  0  0  0
 17 47  1  0  0  0  0
 18 48  1  0  0  0  0
 19 49  1  0  0  0  0
 20 50  1  0  0  0  0
 22 51  1  0  0  0  0
 22 52  1  0  0  0  0
 22 53  1  0  0  0  0
 23 54  1  0  0  0  0
 23 55  1  0  0  0  0
 23 56  1  0  0  0  0
 26 57  1  0  0  0  0
 27 58  1  0  0  0  0
M  END
> <SMILES>
CC1CN2C(C(C)O1)C1(Cc3cc4c(noc4c(c32)F)N2CC[C@H](C2)C#N)C(=O)NC(=O)NC1=O

> <FORMATTED_ID>
H3D-004139

> <MOLFORMULA>
C23H23FN6O5

> <Exact Mass>
482.17

> <XLogP>
0.41

> <TPSA_NOPS>
141.1

> <s_m_source_file>
ligprep_h3d.sdf

> <i_m_source_file_index>
511

> <i_lp_mmshare_version>
55123

> <i_f3d_flags>
0

> <s_epik_input>
Tz1DMVtOSF1DKD1PKVtOSF1DKD1PKUMxMltDQEBIXTNOKFtDSDJdW0NAQEhdKFtDSDNdKU9bQ0BIXTNbQ0gzXSljNGMoW0NIMl0yKVtjSF1jNWMoYzRGKW9uYzVONltDSDJdW0NIMl1bQ0BIXShbQ0gyXTYpQyNO

> <s_epik_cmdline>
J2VwaWtfcHl0aG9uJywgJy1waHQnLCAnMC41JywgJy1waCcsICc3LjUnLCAnLXRuJywgJzgnLCAnLW1hJywgJzUwMCcsICctaW1hZScsICc8aW5maWxlLm1hZT4nLCAnLW9tYWUnLCAnPG91dGZpbGUubWFlPic=

> <r_lp_tautomer_probability>
1

> <r_epik_Ionization_Penalty>
0.369125

> <r_epik_Ionization_Penalty_Charging>
0

> <r_epik_Ionization_Penalty_Neutral>
0.369125

> <r_epik_State_Penalty>
0.366447

> <r_epik_Charging_Adjusted_Penalty>
0.366447

> <i_epik_Tot_Q>
0

> <i_epik_Tot_abs_Q>
0

> <s_lp_Force_Field>
S-OPLS

> <r_lp_Energy>
47.3771

> <b_lp_Chiralities_Consistent>
1

> <s_lp_Variant>
ligprep_h3d.sdf:511-1

> <ROCS_ShapeQuery>
_7L13

> <ROCS_TanimotoCombo>
0.760 

> <ROCS_ShapeTanimoto>
0.623 

> <ROCS_ColorTanimoto>
0.137 

> <ROCS_RefTversky>
0.767 

> <ROCS_RefColorTversky>
0.300 

> <ROCS_RefTverskyCombo>
1.066 

> <ROCS_FitTversky>
0.769 

> <ROCS_FitColorTversky>
0.201 

> <ROCS_FitTverskyCombo>
0.970 

> <ROCS_ColorScore>
-2.773

> <ROCS_Overlap>
1272.652

> <ROCS_Rank>
595                 

$$$$
ligprep_h3d.sdf:5434_410
  -OEChem-08212117123D

 65 70  0     1  0  0  0  0  0999 V2000
  -19.6609   -7.4407  -33.6640 C   0  0  0  0  0  0  0  0  0  0  0  0
  -19.7549   -5.0601  -34.0649 C   0  0  0  0  0  0  0  0  0  0  0  0
  -19.6844   -7.6732  -35.0391 C   0  0  0  0  0  0  0  0  0  0  0  0
  -19.7784   -5.2926  -35.4401 C   0  0  0  0  0  0  0  0  0  0  0  0
  -22.9787   -4.3030  -28.8549 C   0  0  0  0  0  0  0  0  0  0  0  0
  -20.1930   -4.6674  -29.0433 C   0  0  0  0  0  0  0  0  0  0  0  0
  -14.7461   -3.9636  -24.6685 C   0  0  0  0  0  0  0  0  0  0  0  0
  -14.8848   -5.1345  -25.3759 C   0  0  0  0  0  0  0  0  0  0  0  0
  -22.1907   -4.3933  -27.7135 C   0  0  0  0  0  0  0  0  0  0  0  0
  -19.6962   -6.1341  -33.1769 C   0  0  0  0  0  0  0  0  0  0  0  0
  -20.8051   -4.5751  -27.7983 C   0  0  0  0  0  0  0  0  0  0  0  0
  -22.3642   -4.4043  -30.1023 C   0  0  0  0  0  0  0  0  0  0  0  0
  -20.9793   -4.5847  -30.1958 C   0  0  0  0  0  0  0  0  0  0  0  0
  -19.7431   -6.5992  -35.9272 C   0  0  0  0  0  0  0  0  0  0  0  0
  -16.8000   -4.0218  -25.2573 C   0  0  0  0  0  0  0  0  0  0  0  0
  -18.1878   -3.8411  -25.5296 C   0  0  0  0  0  0  0  0  0  0  0  0
  -18.1918   -5.9567  -26.7393 C   0  0  0  0  0  0  0  0  0  0  0  0
  -16.8850   -6.1343  -26.4878 C   0  0  0  0  0  0  0  0  0  0  0  0
  -18.8806   -4.7604  -26.2425 C   0  0  0  0  0  0  0  0  0  0  0  0
  -24.2539   -5.0503  -24.4884 C   0  0  0  0  0  0  0  0  0  0  0  0
  -23.7556   -5.2451  -25.9179 C   0  0  0  0  0  0  0  0  0  0  0  0
  -21.2862   -4.6592  -25.5412 C   0  0  0  0  0  0  0  0  0  0  0  0
  -24.6711   -3.6103  -24.2337 C   0  0  0  0  0  0  0  0  0  0  0  0
  -23.0339   -2.8202  -25.9698 C   0  0  0  0  0  0  0  0  0  0  0  0
  -22.6155   -4.2713  -26.2689 C   0  0  1  0  0  0  0  0  0  0  0  0
  -23.8443   -1.2605  -24.1994 C   0  0  0  0  0  0  0  0  0  0  0  0
  -23.3237   -3.0185  -31.7799 C   0  0  0  0  0  0  0  0  0  0  0  0
  -19.6701   -5.8832  -31.6977 C   0  0  0  0  0  0  0  0  0  0  0  0
  -15.9332   -3.2797  -24.5985 N   0  0  0  0  0  0  0  0  0  0  0  0
  -16.2021   -5.1732  -25.7540 N   0  0  0  0  0  0  0  0  0  0  0  0
  -20.1998   -4.6354  -26.5285 N   0  0  0  0  0  0  0  0  0  0  0  0
  -23.5170   -2.6890  -24.5413 N   0  3  1  0  0  0  0  0  0  0  0  0
  -23.1253   -4.3189  -31.2297 O   0  0  0  0  0  0  0  0  0  0  0  0
  -20.3802   -4.6793  -31.4174 O   0  0  0  0  0  0  0  0  0  0  0  0
  -19.7630   -6.8223  -37.2478 F   0  0  0  0  0  0  0  0  0  0  0  0
  -19.6158   -8.2840  -32.9798 H   0  0  0  0  0  0  0  0  0  0  0  0
  -19.7825   -4.0386  -33.6946 H   0  0  0  0  0  0  0  0  0  0  0  0
  -19.6562   -8.6903  -35.4185 H   0  0  0  0  0  0  0  0  0  0  0  0
  -19.8246   -4.4567  -36.1317 H   0  0  0  0  0  0  0  0  0  0  0  0
  -24.0504   -4.1478  -28.7808 H   0  0  0  0  0  0  0  0  0  0  0  0
  -19.1205   -4.8076  -29.1363 H   0  0  0  0  0  0  0  0  0  0  0  0
  -13.8493   -3.5784  -24.2058 H   0  0  0  0  0  0  0  0  0  0  0  0
  -14.1845   -5.9167  -25.6349 H   0  0  0  0  0  0  0  0  0  0  0  0
  -18.6739   -2.9476  -25.1500 H   0  0  0  0  0  0  0  0  0  0  0  0
  -18.7494   -6.6915  -27.3102 H   0  0  0  0  0  0  0  0  0  0  0  0
  -16.3326   -6.9997  -26.8332 H   0  0  0  0  0  0  0  0  0  0  0  0
  -25.1088   -5.7123  -24.3090 H   0  0  0  0  0  0  0  0  0  0  0  0
  -23.4752   -5.3441  -23.7743 H   0  0  0  0  0  0  0  0  0  0  0  0
  -23.4369   -6.2860  -26.0578 H   0  0  0  0  0  0  0  0  0  0  0  0
  -24.6034   -5.0951  -26.5992 H   0  0  0  0  0  0  0  0  0  0  0  0
  -21.0557   -3.9849  -24.7088 H   0  0  0  0  0  0  0  0  0  0  0  0
  -21.3498   -5.6734  -25.1252 H   0  0  0  0  0  0  0  0  0  0  0  0
  -25.5134   -3.3121  -24.8677 H   0  0  0  0  0  0  0  0  0  0  0  0
  -24.9367   -3.4663  -23.1812 H   0  0  0  0  0  0  0  0  0  0  0  0
  -22.1936   -2.1259  -26.0916 H   0  0  0  0  0  0  0  0  0  0  0  0
  -23.8560   -2.4888  -26.6164 H   0  0  0  0  0  0  0  0  0  0  0  0
  -24.6666   -0.9430  -24.8432 H   0  0  0  0  0  0  0  0  0  0  0  0
  -24.1337   -1.2266  -23.1473 H   0  0  0  0  0  0  0  0  0  0  0  0
  -22.9504   -0.6605  -24.3801 H   0  0  0  0  0  0  0  0  0  0  0  0
  -23.9470   -3.0918  -32.6745 H   0  0  0  0  0  0  0  0  0  0  0  0
  -22.3563   -2.5771  -32.0322 H   0  0  0  0  0  0  0  0  0  0  0  0
  -23.8259   -2.3919  -31.0391 H   0  0  0  0  0  0  0  0  0  0  0  0
  -20.1384   -6.7094  -31.1519 H   0  0  0  0  0  0  0  0  0  0  0  0
  -18.6398   -5.7843  -31.3393 H   0  0  0  0  0  0  0  0  0  0  0  0
  -22.7423   -2.9581  -23.9210 H   0  0  0  0  0  0  0  0  0  0  0  0
  1  3  1  0  0  0  0
  1 10  2  0  0  0  0
  2  4  2  0  0  0  0
  2 10  1  0  0  0  0
  3 14  2  0  0  0  0
  4 14  1  0  0  0  0
  5  9  1  0  0  0  0
  5 12  2  0  0  0  0
  6 11  1  0  0  0  0
  6 13  2  0  0  0  0
  7  8  2  0  0  0  0
  7 29  1  0  0  0  0
  8 30  1  0  0  0  0
  9 11  2  0  0  0  0
  9 25  1  0  0  0  0
 10 28  1  0  0  0  0
 11 31  1  0  0  0  0
 12 13  1  0  0  0  0
 12 33  1  0  0  0  0
 13 34  1  0  0  0  0
 14 35  1  0  0  0  0
 15 16  1  0  0  0  0
 15 29  2  0  0  0  0
 15 30  1  0  0  0  0
 16 19  2  0  0  0  0
 17 18  2  0  0  0  0
 17 19  1  0  0  0  0
 18 30  1  0  0  0  0
 19 31  1  0  0  0  0
 20 21  1  0  0  0  0
 20 23  1  0  0  0  0
 21 25  1  0  0  0  0
 22 25  1  0  0  0  0
 22 31  1  0  0  0  0
 23 32  1  0  0  0  0
 24 25  1  0  0  0  0
 24 32  1  0  0  0  0
 26 32  1  0  0  0  0
 27 33  1  0  0  0  0
 28 34  1  0  0  0  0
  1 36  1  0  0  0  0
  2 37  1  0  0  0  0
  3 38  1  0  0  0  0
  4 39  1  0  0  0  0
  5 40  1  0  0  0  0
  6 41  1  0  0  0  0
  7 42  1  0  0  0  0
  8 43  1  0  0  0  0
 16 44  1  0  0  0  0
 17 45  1  0  0  0  0
 18 46  1  0  0  0  0
 20 47  1  0  0  0  0
 20 48  1  0  0  0  0
 21 49  1  0  0  0  0
 21 50  1  0  0  0  0
 22 51  1  0  0  0  0
 22 52  1  0  0  0  0
 23 53  1  0  0  0  0
 23 54  1  0  0  0  0
 24 55  1  0  0  0  0
 24 56  1  0  0  0  0
 26 57  1  0  0  0  0
 26 58  1  0  0  0  0
 26 59  1  0  0  0  0
 27 60  1  0  0  0  0
 27 61  1  0  0  0  0
 27 62  1  0  0  0  0
 28 63  1  0  0  0  0
 28 64  1  0  0  0  0
 32 65  1  0  0  0  0
M  CHG  1  32   1
M  END
> <SMILES>
COc1cc2c(cc1OCc1ccc(cc1)F)N(CC12CCCN(C)C1)c1ccn2ccnc2c1

> <FORMATTED_ID>
H3D-015745

> <MOLFORMULA>
C28H29FN4O2

> <Exact Mass>
472.23

> <XLogP>
6.17

> <TPSA_NOPS>
42.2

> <s_m_source_file>
ligprep_h3d.sdf

> <i_m_source_file_index>
5434

> <i_lp_mmshare_version>
55123

> <i_f3d_flags>
0

> <s_epik_input>
W2NIXTFbY0hdYyhGKVtjSF1bY0hdYzFbQ0gyXU9jKGMoW2NIXTIpT1tDSDNdKVtjSF1jKGMyW0NAQF0zNFtDSDJdW0NIMl1bQ0gyXU4oW0NIM10pW0NIMl00KU4oW0NIMl0zKWMoW2NIXVtjSF01KVtjSF1jKG41NiluW2NIXVtjSF02

> <s_epik_cmdline>
J2VwaWtfcHl0aG9uJywgJy1waHQnLCAnMC41JywgJy1waCcsICc3LjUnLCAnLXRuJywgJzgnLCAnLW1hJywgJzUwMCcsICctaW1hZScsICc8aW5maWxlLm1hZT4nLCAnLW9tYWUnLCAnPG91dGZpbGUubWFlPic=

> <r_lp_tautomer_probability>
1

> <r_epik_Ionization_Penalty>
0.433104

> <r_epik_Ionization_Penalty_Charging>
0.433104

> <r_epik_Ionization_Penalty_Neutral>
3.09017e-11

> <r_epik_State_Penalty>
0.425596

> <r_epik_Charging_Adjusted_Penalty>
0.8587

> <i_epik_Tot_Q>
1

> <i_epik_Tot_abs_Q>
1

> <s_lp_Force_Field>
S-OPLS

> <r_lp_Energy>
63.3959

> <b_lp_Chiralities_Consistent>
1

> <s_lp_Variant>
ligprep_h3d.sdf:5434-2

> <ROCS_ShapeQuery>
_7L13

> <ROCS_TanimotoCombo>
0.685 

> <ROCS_ShapeTanimoto>
0.629 

> <ROCS_ColorTanimoto>
0.056 

> <ROCS_RefTversky>
0.767 

> <ROCS_RefColorTversky>
0.117 

> <ROCS_RefTverskyCombo>
0.883 

> <ROCS_FitTversky>
0.778 

> <ROCS_FitColorTversky>
0.097 

> <ROCS_FitTverskyCombo>
0.875 

> <ROCS_ColorScore>
-1.061

> <ROCS_Overlap>
1271.885

> <ROCS_Rank>
596                 

$$$$
ligprep_h3d.sdf:1755_796
  -OEChem-08212117123D

 61 65  0     0  0  0  0  0  0999 V2000
  -22.4395   -3.5949  -33.7944 C   0  0  0  0  0  0  0  0  0  0  0  0
  -22.2055   -3.6456  -32.4202 C   0  0  0  0  0  0  0  0  0  0  0  0
  -19.5536   -4.4894  -30.0200 C   0  0  0  0  0  0  0  0  0  0  0  0
  -21.5678   -4.2362  -34.6745 C   0  0  0  0  0  0  0  0  0  0  0  0
  -24.6759   -3.5731  -23.0448 C   0  0  0  0  0  0  0  0  0  0  0  0
  -25.4380   -5.6383  -24.0404 C   0  0  0  0  0  0  0  0  0  0  0  0
  -19.3202   -4.5396  -28.6451 C   0  0  0  0  0  0  0  0  0  0  0  0
  -23.6423   -3.5042  -23.9788 C   0  0  0  0  0  0  0  0  0  0  0  0
  -24.4044   -5.5694  -24.9745 C   0  0  0  0  0  0  0  0  0  0  0  0
  -21.9260   -4.3435  -29.6079 C   0  0  0  0  0  0  0  0  0  0  0  0
  -20.2279   -4.9788  -32.8062 C   0  0  0  0  0  0  0  0  0  0  0  0
  -20.8565   -4.3901  -30.5008 C   0  0  0  0  0  0  0  0  0  0  0  0
  -21.0997   -4.3375  -31.9262 C   0  0  0  0  0  0  0  0  0  0  0  0
  -21.6850   -4.3946  -28.2293 C   0  0  0  0  0  0  0  0  0  0  0  0
  -20.4620   -4.9281  -34.1804 C   0  0  0  0  0  0  0  0  0  0  0  0
  -25.5738   -4.6402  -23.0755 C   0  0  0  0  0  0  0  0  0  0  0  0
  -20.3853   -4.4929  -27.7373 C   0  0  0  0  0  0  0  0  0  0  0  0
  -23.5066   -4.5023  -24.9437 C   0  0  0  0  0  0  0  0  0  0  0  0
  -22.8060   -4.3745  -27.2699 C   0  0  0  0  0  0  0  0  0  0  0  0
  -21.0811   -4.4712  -25.4999 C   0  0  0  0  0  0  0  0  0  0  0  0
  -19.5499   -5.5972  -35.1016 C   0  0  0  0  0  0  0  0  0  0  0  0
  -20.5079   -7.9058  -34.5637 C   0  0  0  0  0  0  0  0  0  0  0  0
  -19.5014   -7.4348  -36.7639 C   0  0  0  0  0  0  0  0  0  0  0  0
  -19.7569   -9.2394  -34.5409 C   0  0  0  0  0  0  0  0  0  0  0  0
  -18.7590   -8.7677  -36.6878 C   0  0  0  0  0  0  0  0  0  0  0  0
  -18.8381  -11.0318  -35.8646 C   0  0  0  0  0  0  0  0  0  0  0  0
  -26.6789   -4.7138  -22.0767 C   0  0  0  0  0  0  0  0  0  0  0  0
  -20.1040   -4.5208  -26.3690 N   0  0  0  0  0  0  0  0  0  0  0  0
  -22.4393   -4.4312  -25.9088 N   0  0  0  0  0  0  0  0  0  0  0  0
  -19.8326   -6.9323  -35.4310 N   0  0  0  0  0  0  0  0  0  0  0  0
  -19.5287   -9.7434  -35.9025 N   0  0  0  0  0  0  0  0  0  0  0  0
  -20.7427   -4.4025  -24.1660 N   0  0  0  0  0  0  0  0  0  0  0  0
  -23.9515   -4.3676  -27.7149 O   0  0  0  0  0  0  0  0  0  0  0  0
  -18.5848   -4.9768  -35.5469 O   0  0  0  0  0  0  0  0  0  0  0  0
  -26.6898   -3.6710  -21.1944 F   0  0  0  0  0  0  0  0  0  0  0  0
  -27.9240   -4.7179  -22.6382 F   0  0  0  0  0  0  0  0  0  0  0  0
  -26.6194   -5.8414  -21.3099 F   0  0  0  0  0  0  0  0  0  0  0  0
  -23.3005   -3.0560  -34.1791 H   0  0  0  0  0  0  0  0  0  0  0  0
  -22.8942   -3.1405  -31.7470 H   0  0  0  0  0  0  0  0  0  0  0  0
  -18.7075   -4.5269  -30.7020 H   0  0  0  0  0  0  0  0  0  0  0  0
  -21.7600   -4.1895  -35.7432 H   0  0  0  0  0  0  0  0  0  0  0  0
  -24.7729   -2.7921  -22.2951 H   0  0  0  0  0  0  0  0  0  0  0  0
  -26.1326   -6.4736  -24.0712 H   0  0  0  0  0  0  0  0  0  0  0  0
  -18.2970   -4.6120  -28.2837 H   0  0  0  0  0  0  0  0  0  0  0  0
  -22.9486   -2.6678  -23.9458 H   0  0  0  0  0  0  0  0  0  0  0  0
  -24.3072   -6.3532  -25.7215 H   0  0  0  0  0  0  0  0  0  0  0  0
  -22.9428   -4.2709  -29.9875 H   0  0  0  0  0  0  0  0  0  0  0  0
  -19.3638   -5.5190  -32.4240 H   0  0  0  0  0  0  0  0  0  0  0  0
  -21.5198   -8.0430  -34.9646 H   0  0  0  0  0  0  0  0  0  0  0  0
  -20.6099   -7.5280  -33.5430 H   0  0  0  0  0  0  0  0  0  0  0  0
  -18.8968   -6.7024  -37.3090 H   0  0  0  0  0  0  0  0  0  0  0  0
  -20.4459   -7.5498  -37.3101 H   0  0  0  0  0  0  0  0  0  0  0  0
  -18.8075   -9.1163  -34.0028 H   0  0  0  0  0  0  0  0  0  0  0  0
  -20.3602   -9.9607  -33.9764 H   0  0  0  0  0  0  0  0  0  0  0  0
  -18.6204   -9.1415  -37.7094 H   0  0  0  0  0  0  0  0  0  0  0  0
  -17.7607   -8.6125  -36.2575 H   0  0  0  0  0  0  0  0  0  0  0  0
  -18.6765  -11.3921  -36.8913 H   0  0  0  0  0  0  0  0  0  0  0  0
  -17.8675  -10.9127  -35.3610 H   0  0  0  0  0  0  0  0  0  0  0  0
  -19.4507  -11.7599  -35.3128 H   0  0  0  0  0  0  0  0  0  0  0  0
  -19.7804   -4.3942  -23.9310 H   0  0  0  0  0  0  0  0  0  0  0  0
  -21.4767   -4.3647  -23.5019 H   0  0  0  0  0  0  0  0  0  0  0  0
  1  2  2  0  0  0  0
  1  4  1  0  0  0  0
  2 13  1  0  0  0  0
  3  7  1  0  0  0  0
  3 12  2  0  0  0  0
  4 15  2  0  0  0  0
  5  8  1  0  0  0  0
  5 16  2  0  0  0  0
  6  9  2  0  0  0  0
  6 16  1  0  0  0  0
  7 17  2  0  0  0  0
  8 18  2  0  0  0  0
  9 18  1  0  0  0  0
 10 12  1  0  0  0  0
 10 14  2  0  0  0  0
 11 13  2  0  0  0  0
 11 15  1  0  0  0  0
 12 13  1  0  0  0  0
 14 17  1  0  0  0  0
 14 19  1  0  0  0  0
 15 21  1  0  0  0  0
 16 27  1  0  0  0  0
 17 28  1  0  0  0  0
 18 29  1  0  0  0  0
 19 29  1  0  0  0  0
 19 33  2  0  0  0  0
 20 28  2  0  0  0  0
 20 29  1  0  0  0  0
 20 32  1  0  0  0  0
 21 30  1  0  0  0  0
 21 34  2  0  0  0  0
 22 24  1  0  0  0  0
 22 30  1  0  0  0  0
 23 25  1  0  0  0  0
 23 30  1  0  0  0  0
 24 31  1  0  0  0  0
 25 31  1  0  0  0  0
 26 31  1  0  0  0  0
 27 35  1  0  0  0  0
 27 36  1  0  0  0  0
 27 37  1  0  0  0  0
  1 38  1  0  0  0  0
  2 39  1  0  0  0  0
  3 40  1  0  0  0  0
  4 41  1  0  0  0  0
  5 42  1  0  0  0  0
  6 43  1  0  0  0  0
  7 44  1  0  0  0  0
  8 45  1  0  0  0  0
  9 46  1  0  0  0  0
 10 47  1  0  0  0  0
 11 48  1  0  0  0  0
 22 49  1  0  0  0  0
 22 50  1  0  0  0  0
 23 51  1  0  0  0  0
 23 52  1  0  0  0  0
 24 53  1  0  0  0  0
 24 54  1  0  0  0  0
 25 55  1  0  0  0  0
 25 56  1  0  0  0  0
 26 57  1  0  0  0  0
 26 58  1  0  0  0  0
 26 59  1  0  0  0  0
 32 60  1  0  0  0  0
 32 61  1  0  0  0  0
M  END
> <SMILES>
CN1CCN(CC1)C(=O)c1cccc(c1)-c1ccc2c(c1)C(=O)N(C(=N2)N)c1ccc(cc1)C(F)(F)F

> <FORMATTED_ID>
H3D-002803

> <MOLFORMULA>
C27H24F3N5O2

> <Exact Mass>
507.19

> <XLogP>
4.67

> <TPSA_NOPS>
82.2

> <s_m_source_file>
ligprep_h3d.sdf

> <i_m_source_file_index>
1755

> <i_lp_mmshare_version>
55123

> <i_f3d_flags>
0

> <s_epik_input>
W0NIM11OMVtDSDJdW0NIMl1OKFtDSDJdW0NIMl0xKUMoPU8pYzJbY0hdW2NIXVtjSF1jKFtjSF0yKS1jKFtjSF1bY0hdMylbY0hdYyhjMzQpYyg9TyluKGMobjQpW05IMl0pLWM1W2NIXVtjSF1jKEMoRikoRilGKVtjSF1bY0hdNQ==

> <s_epik_cmdline>
J2VwaWtfcHl0aG9uJywgJy1waHQnLCAnMC41JywgJy1waCcsICc3LjUnLCAnLXRuJywgJzgnLCAnLW1hJywgJzUwMCcsICctaW1hZScsICc8aW5maWxlLm1hZT4nLCAnLW9tYWUnLCAnPG91dGZpbGUubWFlPic=

> <r_epik_Ionization_Penalty>
0.214614

> <r_epik_Ionization_Penalty_Charging>
3.91892e-10

> <r_epik_Ionization_Penalty_Neutral>
0.214614

> <r_epik_State_Penalty>
0.204792

> <r_epik_Charging_Adjusted_Penalty>
0.204792

> <i_epik_Tot_Q>
0

> <i_epik_Tot_abs_Q>
0

> <s_lp_Force_Field>
S-OPLS

> <r_lp_Energy>
74.8916

> <b_lp_Chiralities_Consistent>
1

> <s_lp_Variant>
ligprep_h3d.sdf:1755-1

> <ROCS_ShapeQuery>
_7L13

> <ROCS_TanimotoCombo>
0.716 

> <ROCS_ShapeTanimoto>
0.604 

> <ROCS_ColorTanimoto>
0.112 

> <ROCS_RefTversky>
0.766 

> <ROCS_RefColorTversky>
0.221 

> <ROCS_RefTverskyCombo>
0.988 

> <ROCS_FitTversky>
0.740 

> <ROCS_FitColorTversky>
0.185 

> <ROCS_FitTverskyCombo>
0.924 

> <ROCS_ColorScore>
-2.015

> <ROCS_Overlap>
1275.239

> <ROCS_Rank>
597                 

$$$$
ligprep_h3d.sdf:4972_1978
  -OEChem-08212117123D

 63 67  0     1  0  0  0  0  0999 V2000
  -24.7849   -4.7751  -25.2341 C   0  0  0  0  0  0  0  0  0  0  0  0
  -23.6061   -3.8024  -23.3628 C   0  0  0  0  0  0  0  0  0  0  0  0
  -25.7515   -5.2785  -24.3635 C   0  0  0  0  0  0  0  0  0  0  0  0
  -24.5727   -4.3059  -22.4923 C   0  0  0  0  0  0  0  0  0  0  0  0
  -21.3636   -4.1525  -34.3039 C   0  0  0  0  0  0  0  0  0  0  0  0
  -19.6376   -5.6461  -33.5458 C   0  0  0  0  0  0  0  0  0  0  0  0
  -16.8089   -6.2605  -25.9300 C   0  0  0  0  0  0  0  0  0  0  0  0
  -16.8239   -3.9039  -25.3981 C   0  0  0  0  0  0  0  0  0  0  0  0
  -14.9507   -5.2794  -24.7378 C   0  0  0  0  0  0  0  0  0  0  0  0
  -21.2179   -4.7102  -35.5638 C   0  0  0  0  0  0  0  0  0  0  0  0
  -20.5546   -4.6350  -33.2811 C   0  0  0  0  0  0  0  0  0  0  0  0
  -17.4383   -5.0165  -25.9727 C   0  0  0  0  0  0  0  0  0  0  0  0
  -23.7121   -4.0371  -24.7337 C   0  0  0  0  0  0  0  0  0  0  0  0
  -25.6454   -5.0439  -22.9927 C   0  0  0  0  0  0  0  0  0  0  0  0
  -15.5651   -6.3920  -25.3124 C   0  0  0  0  0  0  0  0  0  0  0  0
  -15.5800   -4.0353  -24.7806 C   0  0  0  0  0  0  0  0  0  0  0  0
  -19.5693   -6.1370  -34.8397 C   0  0  0  0  0  0  0  0  0  0  0  0
  -21.6812   -4.8109  -31.0614 C   0  0  0  0  0  0  0  0  0  0  0  0
  -22.3470   -5.4832  -28.7686 C   0  0  0  0  0  0  0  0  0  0  0  0
  -19.5244   -5.8329  -27.2474 C   0  0  0  0  0  0  0  0  0  0  0  0
  -19.6916   -3.8786  -26.4933 C   0  0  0  0  0  0  0  0  0  0  0  0
  -20.3352   -4.1431  -29.0200 C   0  0  0  0  0  0  0  0  0  0  0  0
  -21.9639   -4.9662  -27.3857 C   0  0  1  0  0  0  0  0  0  0  0  0
  -20.4775   -4.6507  -27.5813 C   0  0  0  0  0  0  0  0  0  0  0  0
  -18.6428   -7.6004  -36.4694 C   0  0  0  0  0  0  0  0  0  0  0  0
  -20.6705   -4.0673  -31.8978 C   0  0  0  0  0  0  0  0  0  0  0  0
  -22.7601   -3.7157  -27.0176 C   0  0  0  0  0  0  0  0  0  0  0  0
  -20.3384   -5.6935  -35.8592 N   0  0  0  0  0  0  0  0  0  0  0  0
  -18.6881   -4.8838  -26.5938 N   0  0  0  0  0  0  0  0  0  0  0  0
  -21.4530   -4.7991  -29.6946 N   0  0  0  0  0  0  0  0  0  0  0  0
  -22.7442   -3.5329  -25.6055 N   0  0  0  0  0  0  0  0  0  0  0  0
  -22.6316   -5.3836  -31.5971 O   0  0  0  0  0  0  0  0  0  0  0  0
  -18.6722   -7.1325  -35.1263 O   0  0  0  0  0  0  0  0  0  0  0  0
  -26.5737   -5.5274  -22.1567 F   0  0  0  0  0  0  0  0  0  0  0  0
  -14.9602   -7.5864  -25.2731 F   0  0  0  0  0  0  0  0  0  0  0  0
  -14.9892   -2.9665  -24.2305 F   0  0  0  0  0  0  0  0  0  0  0  0
  -24.8774   -4.9636  -26.3006 H   0  0  0  0  0  0  0  0  0  0  0  0
  -22.7742   -3.2289  -22.9621 H   0  0  0  0  0  0  0  0  0  0  0  0
  -26.5869   -5.8530  -24.7528 H   0  0  0  0  0  0  0  0  0  0  0  0
  -24.4905   -4.1238  -21.4248 H   0  0  0  0  0  0  0  0  0  0  0  0
  -22.0887   -3.3651  -34.1296 H   0  0  0  0  0  0  0  0  0  0  0  0
  -18.9941   -6.0384  -32.7650 H   0  0  0  0  0  0  0  0  0  0  0  0
  -17.2783   -7.1337  -26.3753 H   0  0  0  0  0  0  0  0  0  0  0  0
  -17.3051   -2.9297  -25.4266 H   0  0  0  0  0  0  0  0  0  0  0  0
  -13.9816   -5.3822  -24.2584 H   0  0  0  0  0  0  0  0  0  0  0  0
  -21.8246   -4.3671  -36.3955 H   0  0  0  0  0  0  0  0  0  0  0  0
  -22.1350   -6.5552  -28.8580 H   0  0  0  0  0  0  0  0  0  0  0  0
  -23.3950   -5.3169  -29.0373 H   0  0  0  0  0  0  0  0  0  0  0  0
  -19.9208   -6.5826  -26.5537 H   0  0  0  0  0  0  0  0  0  0  0  0
  -19.0355   -6.3296  -28.0898 H   0  0  0  0  0  0  0  0  0  0  0  0
  -19.3324   -2.8833  -26.7667 H   0  0  0  0  0  0  0  0  0  0  0  0
  -20.1558   -3.8552  -25.5017 H   0  0  0  0  0  0  0  0  0  0  0  0
  -20.4907   -3.0612  -29.0879 H   0  0  0  0  0  0  0  0  0  0  0  0
  -19.3847   -4.4036  -29.4942 H   0  0  0  0  0  0  0  0  0  0  0  0
  -22.1312   -5.7311  -26.6194 H   0  0  0  0  0  0  0  0  0  0  0  0
  -17.8910   -8.3876  -36.5655 H   0  0  0  0  0  0  0  0  0  0  0  0
  -18.4049   -6.7709  -37.1401 H   0  0  0  0  0  0  0  0  0  0  0  0
  -19.6248   -8.0043  -36.7267 H   0  0  0  0  0  0  0  0  0  0  0  0
  -19.7041   -4.1072  -31.3922 H   0  0  0  0  0  0  0  0  0  0  0  0
  -20.9598   -3.0159  -31.9337 H   0  0  0  0  0  0  0  0  0  0  0  0
  -22.2872   -2.8733  -27.5192 H   0  0  0  0  0  0  0  0  0  0  0  0
  -23.7778   -3.8651  -27.3739 H   0  0  0  0  0  0  0  0  0  0  0  0
  -21.9799   -3.0004  -25.1817 H   0  0  0  0  0  0  0  0  0  0  0  0
  1  3  1  0  0  0  0
  1 13  2  0  0  0  0
  2  4  2  0  0  0  0
  2 13  1  0  0  0  0
  3 14  2  0  0  0  0
  4 14  1  0  0  0  0
  5 10  1  0  0  0  0
  5 11  2  0  0  0  0
  6 11  1  0  0  0  0
  6 17  2  0  0  0  0
  7 12  2  0  0  0  0
  7 15  1  0  0  0  0
  8 12  1  0  0  0  0
  8 16  2  0  0  0  0
  9 15  2  0  0  0  0
  9 16  1  0  0  0  0
 10 28  2  0  0  0  0
 11 26  1  0  0  0  0
 12 29  1  0  0  0  0
 13 31  1  0  0  0  0
 14 34  1  0  0  0  0
 15 35  1  0  0  0  0
 16 36  1  0  0  0  0
 17 28  1  0  0  0  0
 17 33  1  0  0  0  0
 18 26  1  0  0  0  0
 18 30  1  0  0  0  0
 18 32  2  0  0  0  0
 19 23  1  0  0  0  0
 19 30  1  0  0  0  0
 20 24  1  0  0  0  0
 20 29  1  0  0  0  0
 21 24  1  0  0  0  0
 21 29  1  0  0  0  0
 22 24  1  0  0  0  0
 22 30  1  0  0  0  0
 23 24  1  0  0  0  0
 23 27  1  0  0  0  0
 25 33  1  0  0  0  0
 27 31  1  0  0  0  0
  1 37  1  0  0  0  0
  2 38  1  0  0  0  0
  3 39  1  0  0  0  0
  4 40  1  0  0  0  0
  5 41  1  0  0  0  0
  6 42  1  0  0  0  0
  7 43  1  0  0  0  0
  8 44  1  0  0  0  0
  9 45  1  0  0  0  0
 10 46  1  0  0  0  0
 19 47  1  0  0  0  0
 19 48  1  0  0  0  0
 20 49  1  0  0  0  0
 20 50  1  0  0  0  0
 21 51  1  0  0  0  0
 21 52  1  0  0  0  0
 22 53  1  0  0  0  0
 22 54  1  0  0  0  0
 23 55  1  0  0  0  0
 25 56  1  0  0  0  0
 25 57  1  0  0  0  0
 25 58  1  0  0  0  0
 26 59  1  0  0  0  0
 26 60  1  0  0  0  0
 27 61  1  0  0  0  0
 27 62  1  0  0  0  0
 31 63  1  0  0  0  0
M  END
> <SMILES>
COc1cc(ccn1)CC(=O)N1CC(CNc2ccc(cc2)F)C2(C1)CN(C2)c1cc(cc(c1)F)F

> <FORMATTED_ID>
H3D-008598

> <MOLFORMULA>
C27H27F3N4O2

> <Exact Mass>
496.21

> <XLogP>
3.55

> <TPSA_NOPS>
57.7

> <s_m_source_file>
ligprep_h3d.sdf

> <i_m_source_file_index>
4972

> <i_lp_mmshare_version>
55123

> <i_f3d_flags>
0

> <s_epik_input>
W0NIM11PYzFbY0hdYyhbY0hdW2NIXW4xKVtDSDJdQyg9TylOKFtDSDJdMilbQ0gyXVtDQEhdKFtDSDJdW05IXWMzW2NIXVtjSF1jKEYpW2NIXVtjSF0zKUMyNFtDSDJdTihbQ0gyXTQpYzVbY0hdYyhGKVtjSF1jKEYpW2NIXTU=

> <s_epik_cmdline>
J2VwaWtfcHl0aG9uJywgJy1waHQnLCAnMC41JywgJy1waCcsICc3LjUnLCAnLXRuJywgJzgnLCAnLW1hJywgJzUwMCcsICctaW1hZScsICc8aW5maWxlLm1hZT4nLCAnLW9tYWUnLCAnPG91dGZpbGUubWFlPic=

> <r_lp_tautomer_probability>
1

> <r_epik_Ionization_Penalty>
0.00241121

> <r_epik_Ionization_Penalty_Charging>
0

> <r_epik_Ionization_Penalty_Neutral>
0.00241121

> <r_epik_State_Penalty>
-0

> <r_epik_Charging_Adjusted_Penalty>
0

> <i_epik_Tot_Q>
0

> <i_epik_Tot_abs_Q>
0

> <s_lp_Force_Field>
S-OPLS

> <r_lp_Energy>
51.3355

> <b_lp_Chiralities_Consistent>
1

> <s_lp_Variant>
ligprep_h3d.sdf:4972-1

> <ROCS_ShapeQuery>
_7L13

> <ROCS_TanimotoCombo>
0.688 

> <ROCS_ShapeTanimoto>
0.624 

> <ROCS_ColorTanimoto>
0.064 

> <ROCS_RefTversky>
0.766 

> <ROCS_RefColorTversky>
0.120 

> <ROCS_RefTverskyCombo>
0.886 

> <ROCS_FitTversky>
0.771 

> <ROCS_FitColorTversky>
0.119 

> <ROCS_FitTverskyCombo>
0.890 

> <ROCS_ColorScore>
-1.076

> <ROCS_Overlap>
1272.304

> <ROCS_Rank>
598                 

$$$$
ligprep_h3d.sdf:551_87
  -OEChem-08212117123D

 60 65  0     1  0  0  0  0  0999 V2000
  -22.4321   -2.9253  -22.0397 C   0  0  0  0  0  0  0  0  0  0  0  0
  -20.9342   -5.1118  -29.5461 C   0  0  0  0  0  0  0  0  0  0  0  0
  -21.7304   -4.3593  -30.4119 C   0  0  0  0  0  0  0  0  0  0  0  0
  -21.0581   -4.9015  -28.1515 C   0  0  0  0  0  0  0  0  0  0  0  0
  -21.9853   -3.9889  -27.5991 C   0  0  0  0  0  0  0  0  0  0  0  0
  -22.6077   -3.4462  -29.8694 C   0  0  0  0  0  0  0  0  0  0  0  0
  -22.7658   -3.2266  -28.5010 C   0  0  0  0  0  0  0  0  0  0  0  0
  -21.9270   -4.2295  -31.7994 C   0  0  0  0  0  0  0  0  0  0  0  0
  -18.9073   -3.7846  -26.2915 C   0  0  0  0  0  0  0  0  0  0  0  0
  -19.1529   -6.0541  -25.0916 C   0  0  0  0  0  0  0  0  0  0  0  0
  -16.9377   -5.2403  -25.8734 C   0  0  0  0  0  0  0  0  0  0  0  0
  -20.1757   -5.7121  -27.2427 C   0  0  0  0  0  0  0  0  0  0  0  0
  -20.0570   -5.6191  -34.6521 C   0  0  0  0  0  0  0  0  0  0  0  0
  -20.3547   -4.4316  -33.7432 C   0  0  0  0  0  0  0  0  0  0  0  0
  -21.2501   -6.4484  -32.7514 C   0  0  0  0  0  0  0  0  0  0  0  0
  -23.1656   -2.9972  -25.6637 C   0  0  0  0  0  0  0  0  0  0  0  0
  -21.1621   -4.4846  -25.2573 C   0  0  2  0  0  0  0  0  0  0  0  0
  -20.1140   -6.8095  -33.7065 C   0  0  1  0  0  0  0  0  0  0  0  0
  -23.5265   -3.3360  -24.2192 C   0  0  1  0  0  0  0  0  0  0  0  0
  -20.9943   -3.5188  -24.0361 C   0  0  2  0  0  0  0  0  0  0  0  0
  -19.8325   -4.9594  -25.9325 C   0  0  0  0  0  0  0  0  0  0  0  0
  -24.3216   -4.6353  -24.0825 C   0  0  0  0  0  0  0  0  0  0  0  0
  -19.9262   -3.9530  -23.0239 C   0  0  0  0  0  0  0  0  0  0  0  0
  -22.5222   -2.5447  -20.9477 N   0  0  0  0  0  0  0  0  0  0  0  0
  -22.8492   -3.3090  -32.0968 N   0  0  0  0  0  0  0  0  0  0  0  0
  -17.5582   -4.0964  -26.3553 N   0  0  0  0  0  0  0  0  0  0  0  0
  -17.7773   -6.1454  -25.2395 N   0  0  0  0  0  0  0  0  0  0  0  0
  -22.3269   -3.3696  -23.3150 N   0  0  0  0  0  0  0  0  0  0  0  0
  -22.1037   -3.8459  -26.2130 N   0  0  3  0  0  0  0  0  0  0  0  0
  -21.2255   -4.9890  -32.7114 N   0  0  0  0  0  0  0  0  0  0  0  0
  -19.3218   -2.6587  -26.5670 O   0  0  0  0  0  0  0  0  0  0  0  0
  -19.7835   -6.8558  -24.4011 O   0  0  0  0  0  0  0  0  0  0  0  0
  -15.7221   -5.4200  -25.9648 O   0  0  0  0  0  0  0  0  0  0  0  0
  -23.2773   -2.8126  -30.8710 O   0  0  0  0  0  0  0  0  0  0  0  0
  -20.3968   -8.0078  -34.4013 O   0  0  0  0  0  0  0  0  0  0  0  0
  -23.7080   -2.3595  -28.1053 F   0  0  0  0  0  0  0  0  0  0  0  0
  -20.2358   -5.8471  -29.9329 H   0  0  0  0  0  0  0  0  0  0  0  0
  -20.7124   -6.6332  -27.0187 H   0  0  0  0  0  0  0  0  0  0  0  0
  -19.2628   -5.9759  -27.7732 H   0  0  0  0  0  0  0  0  0  0  0  0
  -20.7808   -5.6878  -35.4692 H   0  0  0  0  0  0  0  0  0  0  0  0
  -19.0494   -5.5196  -35.0715 H   0  0  0  0  0  0  0  0  0  0  0  0
  -19.4348   -4.0101  -33.3232 H   0  0  0  0  0  0  0  0  0  0  0  0
  -20.8871   -3.6444  -34.2904 H   0  0  0  0  0  0  0  0  0  0  0  0
  -22.2198   -6.8241  -33.0989 H   0  0  0  0  0  0  0  0  0  0  0  0
  -21.0473   -6.8355  -31.7456 H   0  0  0  0  0  0  0  0  0  0  0  0
  -24.0391   -3.0306  -26.3380 H   0  0  0  0  0  0  0  0  0  0  0  0
  -22.8636   -1.9391  -25.6211 H   0  0  0  0  0  0  0  0  0  0  0  0
  -21.6912   -5.3664  -24.8597 H   0  0  0  0  0  0  0  0  0  0  0  0
  -19.1535   -6.9421  -33.1670 H   0  0  0  0  0  0  0  0  0  0  0  0
  -24.1619   -2.5064  -23.8358 H   0  0  0  0  0  0  0  0  0  0  0  0
  -20.7157   -2.5409  -24.3825 H   0  0  0  0  0  0  0  0  0  0  0  0
  -23.7273   -5.4695  -24.4496 H   0  0  0  0  0  0  0  0  0  0  0  0
  -25.2394   -4.5664  -24.6626 H   0  0  0  0  0  0  0  0  0  0  0  0
  -24.5701   -4.8049  -23.0368 H   0  0  0  0  0  0  0  0  0  0  0  0
  -20.1656   -4.9427  -22.6426 H   0  0  0  0  0  0  0  0  0  0  0  0
  -19.8976   -3.2463  -22.1980 H   0  0  0  0  0  0  0  0  0  0  0  0
  -18.9533   -3.9796  -23.5089 H   0  0  0  0  0  0  0  0  0  0  0  0
  -16.9582   -3.4135  -26.8034 H   0  0  0  0  0  0  0  0  0  0  0  0
  -17.3343   -6.9678  -24.8385 H   0  0  0  0  0  0  0  0  0  0  0  0
  -19.6822   -8.1313  -35.0461 H   0  0  0  0  0  0  0  0  0  0  0  0
  1 24  3  0  0  0  0
  1 28  1  0  0  0  0
  2  3  2  0  0  0  0
  2  4  1  0  0  0  0
  3  6  1  0  0  0  0
  3  8  1  0  0  0  0
  4  5  2  0  0  0  0
  4 12  1  0  0  0  0
  5  7  1  0  0  0  0
  5 29  1  0  0  0  0
  6  7  2  0  0  0  0
  6 34  1  0  0  0  0
  7 36  1  0  0  0  0
  8 25  2  0  0  0  0
  8 30  1  0  0  0  0
  9 21  1  0  0  0  0
  9 26  1  0  0  0  0
  9 31  2  0  0  0  0
 10 21  1  0  0  0  0
 10 27  1  0  0  0  0
 10 32  2  0  0  0  0
 11 26  1  0  0  0  0
 11 27  1  0  0  0  0
 11 33  2  0  0  0  0
 12 21  1  0  0  0  0
 13 14  1  0  0  0  0
 13 18  1  0  0  0  0
 14 30  1  0  0  0  0
 15 18  1  0  0  0  0
 15 30  1  0  0  0  0
 16 19  1  0  0  0  0
 16 29  1  0  0  0  0
 17 20  1  0  0  0  0
 17 21  1  0  0  0  0
 17 29  1  0  0  0  0
 18 35  1  0  0  0  0
 19 22  1  0  0  0  0
 19 28  1  0  0  0  0
 20 23  1  0  0  0  0
 20 28  1  0  0  0  0
 25 34  1  0  0  0  0
  2 37  1  0  0  0  0
 12 38  1  0  0  0  0
 12 39  1  0  0  0  0
 13 40  1  0  0  0  0
 13 41  1  0  0  0  0
 14 42  1  0  0  0  0
 14 43  1  0  0  0  0
 15 44  1  0  0  0  0
 15 45  1  0  0  0  0
 16 46  1  0  0  0  0
 16 47  1  0  0  0  0
 17 48  1  0  0  0  0
 18 49  1  0  0  0  0
 19 50  1  0  0  0  0
 20 51  1  0  0  0  0
 22 52  1  0  0  0  0
 22 53  1  0  0  0  0
 22 54  1  0  0  0  0
 23 55  1  0  0  0  0
 23 56  1  0  0  0  0
 23 57  1  0  0  0  0
 26 58  1  0  0  0  0
 27 59  1  0  0  0  0
 35 60  1  0  0  0  0
M  END
> <SMILES>
CC1CN2C(C(C)N1C#N)C1(Cc3cc4c(noc4c(c32)F)N2CC[C@H](O)C2)C(=O)NC(=O)NC1=O

> <FORMATTED_ID>
H3D-004258

> <MOLFORMULA>
C23H24FN7O5

> <Exact Mass>
497.18

> <XLogP>
-0.37

> <TPSA_NOPS>
155.3

> <s_m_source_file>
ligprep_h3d.sdf

> <i_m_source_file_index>
551

> <i_lp_mmshare_version>
55123

> <i_f3d_flags>
0

> <s_epik_input>
Tz1DMVtOSF1DKD1PKVtOSF1DKD1PKUMxMltDQEBIXTNOKFtDSDJdW0NAQEhdKFtDSDNdKU4oQyNOKVtDQEhdM1tDSDNdKWM0YyhbQ0gyXTIpW2NIXWM1YyhjNEYpb25jNU42W0NIMl1bQ0gyXVtDQEhdKFtPSF0pW0NIMl02

> <s_epik_cmdline>
J2VwaWtfcHl0aG9uJywgJy1waHQnLCAnMC41JywgJy1waCcsICc3LjUnLCAnLXRuJywgJzgnLCAnLW1hJywgJzUwMCcsICctaW1hZScsICc8aW5maWxlLm1hZT4nLCAnLW9tYWUnLCAnPG91dGZpbGUubWFlPic=

> <r_lp_tautomer_probability>
1

> <r_epik_Ionization_Penalty>
0.218707

> <r_epik_Ionization_Penalty_Charging>
0

> <r_epik_Ionization_Penalty_Neutral>
0.218707

> <r_epik_State_Penalty>
0.208986

> <r_epik_Charging_Adjusted_Penalty>
0.208986

> <i_epik_Tot_Q>
0

> <i_epik_Tot_abs_Q>
0

> <s_lp_Force_Field>
S-OPLS

> <r_lp_Energy>
51.111

> <b_lp_Chiralities_Consistent>
1

> <s_lp_Variant>
ligprep_h3d.sdf:551-1

> <ROCS_ShapeQuery>
_7L13

> <ROCS_TanimotoCombo>
0.735 

> <ROCS_ShapeTanimoto>
0.611 

> <ROCS_ColorTanimoto>
0.125 

> <ROCS_RefTversky>
0.766 

> <ROCS_RefColorTversky>
0.297 

> <ROCS_RefTverskyCombo>
1.063 

> <ROCS_FitTversky>
0.750 

> <ROCS_FitColorTversky>
0.177 

> <ROCS_FitTverskyCombo>
0.927 

> <ROCS_ColorScore>
-2.773

> <ROCS_Overlap>
1274.167

> <ROCS_Rank>
599                 

$$$$
ligprep_h3d.sdf:550_82
  -OEChem-08212117123D

 60 65  0     1  0  0  0  0  0999 V2000
  -22.4209   -2.9007  -22.0416 C   0  0  0  0  0  0  0  0  0  0  0  0
  -20.9551   -5.1398  -29.5388 C   0  0  0  0  0  0  0  0  0  0  0  0
  -21.7376   -4.3769  -30.4080 C   0  0  0  0  0  0  0  0  0  0  0  0
  -21.0764   -4.9224  -28.1450 C   0  0  0  0  0  0  0  0  0  0  0  0
  -21.9882   -3.9920  -27.5967 C   0  0  0  0  0  0  0  0  0  0  0  0
  -22.5995   -3.4469  -29.8695 C   0  0  0  0  0  0  0  0  0  0  0  0
  -22.7549   -3.2197  -28.5020 C   0  0  0  0  0  0  0  0  0  0  0  0
  -21.9310   -4.2488  -31.7960 C   0  0  0  0  0  0  0  0  0  0  0  0
  -18.9082   -3.8358  -26.2873 C   0  0  0  0  0  0  0  0  0  0  0  0
  -19.1936   -6.0964  -25.0795 C   0  0  0  0  0  0  0  0  0  0  0  0
  -16.9642   -5.3236  -25.8624 C   0  0  0  0  0  0  0  0  0  0  0  0
  -20.2088   -5.7447  -27.2326 C   0  0  0  0  0  0  0  0  0  0  0  0
  -20.6307   -6.8358  -34.0727 C   0  0  0  0  0  0  0  0  0  0  0  0
  -21.3044   -6.4822  -32.7512 C   0  0  0  0  0  0  0  0  0  0  0  0
  -20.3494   -4.4852  -33.7275 C   0  0  0  0  0  0  0  0  0  0  0  0
  -23.1528   -2.9731  -25.6659 C   0  0  0  0  0  0  0  0  0  0  0  0
  -21.1754   -4.4933  -25.2525 C   0  0  2  0  0  0  0  0  0  0  0  0
  -19.6195   -5.7159  -34.2636 C   0  0  2  0  0  0  0  0  0  0  0  0
  -23.5205   -3.3005  -24.2205 C   0  0  1  0  0  0  0  0  0  0  0  0
  -20.9920   -3.5261  -24.0346 C   0  0  2  0  0  0  0  0  0  0  0  0
  -19.8536   -4.9932  -25.9249 C   0  0  0  0  0  0  0  0  0  0  0  0
  -24.3379   -4.5854  -24.0797 C   0  0  0  0  0  0  0  0  0  0  0  0
  -19.9322   -3.9748  -23.0200 C   0  0  0  0  0  0  0  0  0  0  0  0
  -22.5052   -2.5146  -20.9510 N   0  0  0  0  0  0  0  0  0  0  0  0
  -22.8369   -3.3137  -32.0975 N   0  0  0  0  0  0  0  0  0  0  0  0
  -17.5646   -4.1710  -26.3489 N   0  0  0  0  0  0  0  0  0  0  0  0
  -17.8196   -6.2118  -25.2259 N   0  0  0  0  0  0  0  0  0  0  0  0
  -22.3224   -3.3514  -23.3152 N   0  0  0  0  0  0  0  0  0  0  0  0
  -22.1052   -3.8419  -26.2112 N   0  0  3  0  0  0  0  0  0  0  0  0
  -21.2419   -5.0235  -32.7048 N   0  0  0  0  0  0  0  0  0  0  0  0
  -19.3030   -2.7040  -26.5673 O   0  0  0  0  0  0  0  0  0  0  0  0
  -19.8384   -6.8846  -24.3866 O   0  0  0  0  0  0  0  0  0  0  0  0
  -15.7518   -5.5246  -25.9522 O   0  0  0  0  0  0  0  0  0  0  0  0
  -23.2573   -2.8056  -30.8738 O   0  0  0  0  0  0  0  0  0  0  0  0
  -19.2850   -5.5751  -35.6300 O   0  0  0  0  0  0  0  0  0  0  0  0
  -23.6823   -2.3351  -28.1102 F   0  0  0  0  0  0  0  0  0  0  0  0
  -20.2692   -5.8884  -29.9223 H   0  0  0  0  0  0  0  0  0  0  0  0
  -20.7613   -6.6556  -27.0057 H   0  0  0  0  0  0  0  0  0  0  0  0
  -19.3002   -6.0260  -27.7614 H   0  0  0  0  0  0  0  0  0  0  0  0
  -20.1135   -7.7977  -33.9784 H   0  0  0  0  0  0  0  0  0  0  0  0
  -21.3580   -6.8982  -34.8876 H   0  0  0  0  0  0  0  0  0  0  0  0
  -22.3520   -6.8065  -32.7460 H   0  0  0  0  0  0  0  0  0  0  0  0
  -20.7870   -6.9446  -31.9033 H   0  0  0  0  0  0  0  0  0  0  0  0
  -19.6423   -3.7924  -33.2558 H   0  0  0  0  0  0  0  0  0  0  0  0
  -20.9077   -3.9599  -34.5111 H   0  0  0  0  0  0  0  0  0  0  0  0
  -24.0262   -2.9940  -26.3408 H   0  0  0  0  0  0  0  0  0  0  0  0
  -22.8327   -1.9203  -25.6269 H   0  0  0  0  0  0  0  0  0  0  0  0
  -21.7199   -5.3644  -24.8522 H   0  0  0  0  0  0  0  0  0  0  0  0
  -18.6863   -5.9193  -33.6989 H   0  0  0  0  0  0  0  0  0  0  0  0
  -24.1419   -2.4587  -23.8406 H   0  0  0  0  0  0  0  0  0  0  0  0
  -20.6964   -2.5544  -24.3844 H   0  0  0  0  0  0  0  0  0  0  0  0
  -23.7578   -5.4310  -24.4433 H   0  0  0  0  0  0  0  0  0  0  0  0
  -25.2540   -4.5029  -24.6608 H   0  0  0  0  0  0  0  0  0  0  0  0
  -24.5901   -4.7469  -23.0336 H   0  0  0  0  0  0  0  0  0  0  0  0
  -20.1890   -4.9589  -22.6353 H   0  0  0  0  0  0  0  0  0  0  0  0
  -19.8922   -3.2658  -22.1966 H   0  0  0  0  0  0  0  0  0  0  0  0
  -18.9596   -4.0199  -23.5041 H   0  0  0  0  0  0  0  0  0  0  0  0
  -16.9526   -3.5002  -26.7990 H   0  0  0  0  0  0  0  0  0  0  0  0
  -17.3912   -7.0403  -24.8215 H   0  0  0  0  0  0  0  0  0  0  0  0
  -18.9066   -6.4228  -35.9129 H   0  0  0  0  0  0  0  0  0  0  0  0
  1 24  3  0  0  0  0
  1 28  1  0  0  0  0
  2  3  2  0  0  0  0
  2  4  1  0  0  0  0
  3  6  1  0  0  0  0
  3  8  1  0  0  0  0
  4  5  2  0  0  0  0
  4 12  1  0  0  0  0
  5  7  1  0  0  0  0
  5 29  1  0  0  0  0
  6  7  2  0  0  0  0
  6 34  1  0  0  0  0
  7 36  1  0  0  0  0
  8 25  2  0  0  0  0
  8 30  1  0  0  0  0
  9 21  1  0  0  0  0
  9 26  1  0  0  0  0
  9 31  2  0  0  0  0
 10 21  1  0  0  0  0
 10 27  1  0  0  0  0
 10 32  2  0  0  0  0
 11 26  1  0  0  0  0
 11 27  1  0  0  0  0
 11 33  2  0  0  0  0
 12 21  1  0  0  0  0
 13 14  1  0  0  0  0
 13 18  1  0  0  0  0
 14 30  1  0  0  0  0
 15 18  1  0  0  0  0
 15 30  1  0  0  0  0
 16 19  1  0  0  0  0
 16 29  1  0  0  0  0
 17 20  1  0  0  0  0
 17 21  1  0  0  0  0
 17 29  1  0  0  0  0
 18 35  1  0  0  0  0
 19 22  1  0  0  0  0
 19 28  1  0  0  0  0
 20 23  1  0  0  0  0
 20 28  1  0  0  0  0
 25 34  1  0  0  0  0
  2 37  1  0  0  0  0
 12 38  1  0  0  0  0
 12 39  1  0  0  0  0
 13 40  1  0  0  0  0
 13 41  1  0  0  0  0
 14 42  1  0  0  0  0
 14 43  1  0  0  0  0
 15 44  1  0  0  0  0
 15 45  1  0  0  0  0
 16 46  1  0  0  0  0
 16 47  1  0  0  0  0
 17 48  1  0  0  0  0
 18 49  1  0  0  0  0
 19 50  1  0  0  0  0
 20 51  1  0  0  0  0
 22 52  1  0  0  0  0
 22 53  1  0  0  0  0
 22 54  1  0  0  0  0
 23 55  1  0  0  0  0
 23 56  1  0  0  0  0
 23 57  1  0  0  0  0
 26 58  1  0  0  0  0
 27 59  1  0  0  0  0
 35 60  1  0  0  0  0
M  END
> <SMILES>
CC1CN2C(C(C)N1C#N)C1(Cc3cc4c(noc4c(c32)F)N2CC[C@@H](O)C2)C(=O)NC(=O)NC1=O

> <FORMATTED_ID>
H3D-004257

> <MOLFORMULA>
C23H24FN7O5

> <Exact Mass>
497.18

> <XLogP>
-0.37

> <TPSA_NOPS>
155.3

> <s_m_source_file>
ligprep_h3d.sdf

> <i_m_source_file_index>
550

> <i_lp_mmshare_version>
55123

> <i_f3d_flags>
0

> <s_epik_input>
Tz1DMVtOSF1DKD1PKVtOSF1DKD1PKUMxMltDQEBIXTNOKFtDSDJdW0NAQEhdKFtDSDNdKU4oQyNOKVtDQEhdM1tDSDNdKWM0YyhbQ0gyXTIpW2NIXWM1YyhjNEYpb25jNU42W0NIMl1bQ0gyXVtDQEBIXShbT0hdKVtDSDJdNg==

> <s_epik_cmdline>
J2VwaWtfcHl0aG9uJywgJy1waHQnLCAnMC41JywgJy1waCcsICc3LjUnLCAnLXRuJywgJzgnLCAnLW1hJywgJzUwMCcsICctaW1hZScsICc8aW5maWxlLm1hZT4nLCAnLW9tYWUnLCAnPG91dGZpbGUubWFlPic=

> <r_lp_tautomer_probability>
1

> <r_epik_Ionization_Penalty>
0.218707

> <r_epik_Ionization_Penalty_Charging>
0

> <r_epik_Ionization_Penalty_Neutral>
0.218707

> <r_epik_State_Penalty>
0.208986

> <r_epik_Charging_Adjusted_Penalty>
0.208986

> <i_epik_Tot_Q>
0

> <i_epik_Tot_abs_Q>
0

> <s_lp_Force_Field>
S-OPLS

> <r_lp_Energy>
52.0081

> <b_lp_Chiralities_Consistent>
1

> <s_lp_Variant>
ligprep_h3d.sdf:550-1

> <ROCS_ShapeQuery>
_7L13

> <ROCS_TanimotoCombo>
0.735 

> <ROCS_ShapeTanimoto>
0.611 

> <ROCS_ColorTanimoto>
0.125 

> <ROCS_RefTversky>
0.766 

> <ROCS_RefColorTversky>
0.297 

> <ROCS_RefTverskyCombo>
1.063 

> <ROCS_FitTversky>
0.750 

> <ROCS_FitColorTversky>
0.177 

> <ROCS_FitTverskyCombo>
0.927 

> <ROCS_ColorScore>
-2.776

> <ROCS_Overlap>
1274.155

> <ROCS_Rank>
600                 

$$$$
ligprep_h3d.sdf:704_87
  -OEChem-08212117123D

 60 65  0     1  0  0  0  0  0999 V2000
  -22.4339   -2.9248  -22.0393 C   0  0  0  0  0  0  0  0  0  0  0  0
  -20.9346   -5.1107  -29.5456 C   0  0  0  0  0  0  0  0  0  0  0  0
  -21.7302   -4.3577  -30.4115 C   0  0  0  0  0  0  0  0  0  0  0  0
  -21.0589   -4.9006  -28.1510 C   0  0  0  0  0  0  0  0  0  0  0  0
  -21.9858   -3.9876  -27.5987 C   0  0  0  0  0  0  0  0  0  0  0  0
  -22.6071   -3.4442  -29.8692 C   0  0  0  0  0  0  0  0  0  0  0  0
  -22.7656   -3.2248  -28.5008 C   0  0  0  0  0  0  0  0  0  0  0  0
  -21.9262   -4.2276  -31.7990 C   0  0  0  0  0  0  0  0  0  0  0  0
  -18.9081   -3.7851  -26.2900 C   0  0  0  0  0  0  0  0  0  0  0  0
  -19.1553   -6.0547  -25.0907 C   0  0  0  0  0  0  0  0  0  0  0  0
  -16.9394   -5.2419  -25.8715 C   0  0  0  0  0  0  0  0  0  0  0  0
  -20.1772   -5.7118  -27.2420 C   0  0  0  0  0  0  0  0  0  0  0  0
  -20.0560   -5.6176  -34.6514 C   0  0  0  0  0  0  0  0  0  0  0  0
  -20.3534   -4.4301  -33.7423 C   0  0  0  0  0  0  0  0  0  0  0  0
  -21.2501   -6.4466  -32.7512 C   0  0  0  0  0  0  0  0  0  0  0  0
  -23.1662   -2.9956  -25.6636 C   0  0  0  0  0  0  0  0  0  0  0  0
  -21.1636   -4.4842  -25.2567 C   0  0  2  0  0  0  0  0  0  0  0  0
  -20.1139   -6.8082  -33.7059 C   0  0  1  0  0  0  0  0  0  0  0  0
  -23.5277   -3.3345  -24.2193 C   0  0  1  0  0  0  0  0  0  0  0  0
  -20.9958   -3.5187  -24.0353 C   0  0  2  0  0  0  0  0  0  0  0  0
  -19.8340   -4.9595  -25.9316 C   0  0  0  0  0  0  0  0  0  0  0  0
  -24.3236   -4.6334  -24.0830 C   0  0  0  0  0  0  0  0  0  0  0  0
  -19.9282   -3.9535  -23.0228 C   0  0  0  0  0  0  0  0  0  0  0  0
  -22.5241   -2.5443  -20.9473 N   0  0  0  0  0  0  0  0  0  0  0  0
  -22.8478   -3.3065  -32.0966 N   0  0  0  0  0  0  0  0  0  0  0  0
  -17.5592   -4.0976  -26.3534 N   0  0  0  0  0  0  0  0  0  0  0  0
  -17.7796   -6.1467  -25.2381 N   0  0  0  0  0  0  0  0  0  0  0  0
  -22.3285   -3.3689  -23.3146 N   0  0  0  0  0  0  0  0  0  0  0  0
  -22.1046   -3.8448  -26.2126 N   0  0  3  0  0  0  0  0  0  0  0  0
  -21.2248   -4.9872  -32.7110 N   0  0  0  0  0  0  0  0  0  0  0  0
  -19.3219   -2.6590  -26.5655 O   0  0  0  0  0  0  0  0  0  0  0  0
  -19.7865   -6.8562  -24.4005 O   0  0  0  0  0  0  0  0  0  0  0  0
  -15.7239   -5.4223  -25.9626 O   0  0  0  0  0  0  0  0  0  0  0  0
  -23.2760   -2.8102  -30.8708 O   0  0  0  0  0  0  0  0  0  0  0  0
  -20.3971   -8.0062  -34.4011 O   0  0  0  0  0  0  0  0  0  0  0  0
  -23.7074   -2.3573  -28.1052 F   0  0  0  0  0  0  0  0  0  0  0  0
  -20.2365   -5.8463  -29.9323 H   0  0  0  0  0  0  0  0  0  0  0  0
  -20.7144   -6.6326  -27.0183 H   0  0  0  0  0  0  0  0  0  0  0  0
  -19.2643   -5.9760  -27.7722 H   0  0  0  0  0  0  0  0  0  0  0  0
  -20.7795   -5.6858  -35.4687 H   0  0  0  0  0  0  0  0  0  0  0  0
  -19.0482   -5.5185  -35.0704 H   0  0  0  0  0  0  0  0  0  0  0  0
  -19.4334   -4.0092  -33.3220 H   0  0  0  0  0  0  0  0  0  0  0  0
  -20.8851   -3.6425  -34.2897 H   0  0  0  0  0  0  0  0  0  0  0  0
  -22.2199   -6.8217  -33.0991 H   0  0  0  0  0  0  0  0  0  0  0  0
  -21.0479   -6.8340  -31.7454 H   0  0  0  0  0  0  0  0  0  0  0  0
  -24.0395   -3.0285  -26.3381 H   0  0  0  0  0  0  0  0  0  0  0  0
  -22.8637   -1.9377  -25.6207 H   0  0  0  0  0  0  0  0  0  0  0  0
  -21.6933   -5.3658  -24.8595 H   0  0  0  0  0  0  0  0  0  0  0  0
  -19.1537   -6.9413  -33.1662 H   0  0  0  0  0  0  0  0  0  0  0  0
  -24.1629   -2.5046  -23.8359 H   0  0  0  0  0  0  0  0  0  0  0  0
  -20.7165   -2.5409  -24.3815 H   0  0  0  0  0  0  0  0  0  0  0  0
  -23.7296   -5.4678  -24.4501 H   0  0  0  0  0  0  0  0  0  0  0  0
  -25.2412   -4.5640  -24.6634 H   0  0  0  0  0  0  0  0  0  0  0  0
  -24.5725   -4.8031  -23.0375 H   0  0  0  0  0  0  0  0  0  0  0  0
  -20.1683   -4.9432  -22.6418 H   0  0  0  0  0  0  0  0  0  0  0  0
  -19.8995   -3.2470  -22.1968 H   0  0  0  0  0  0  0  0  0  0  0  0
  -18.9552   -3.9806  -23.5075 H   0  0  0  0  0  0  0  0  0  0  0  0
  -16.9587   -3.4150  -26.8013 H   0  0  0  0  0  0  0  0  0  0  0  0
  -17.3372   -6.9694  -24.8370 H   0  0  0  0  0  0  0  0  0  0  0  0
  -19.6823   -8.1300  -35.0457 H   0  0  0  0  0  0  0  0  0  0  0  0
  1 24  3  0  0  0  0
  1 28  1  0  0  0  0
  2  3  2  0  0  0  0
  2  4  1  0  0  0  0
  3  6  1  0  0  0  0
  3  8  1  0  0  0  0
  4  5  2  0  0  0  0
  4 12  1  0  0  0  0
  5  7  1  0  0  0  0
  5 29  1  0  0  0  0
  6  7  2  0  0  0  0
  6 34  1  0  0  0  0
  7 36  1  0  0  0  0
  8 25  2  0  0  0  0
  8 30  1  0  0  0  0
  9 21  1  0  0  0  0
  9 26  1  0  0  0  0
  9 31  2  0  0  0  0
 10 21  1  0  0  0  0
 10 27  1  0  0  0  0
 10 32  2  0  0  0  0
 11 26  1  0  0  0  0
 11 27  1  0  0  0  0
 11 33  2  0  0  0  0
 12 21  1  0  0  0  0
 13 14  1  0  0  0  0
 13 18  1  0  0  0  0
 14 30  1  0  0  0  0
 15 18  1  0  0  0  0
 15 30  1  0  0  0  0
 16 19  1  0  0  0  0
 16 29  1  0  0  0  0
 17 20  1  0  0  0  0
 17 21  1  0  0  0  0
 17 29  1  0  0  0  0
 18 35  1  0  0  0  0
 19 22  1  0  0  0  0
 19 28  1  0  0  0  0
 20 23  1  0  0  0  0
 20 28  1  0  0  0  0
 25 34  1  0  0  0  0
  2 37  1  0  0  0  0
 12 38  1  0  0  0  0
 12 39  1  0  0  0  0
 13 40  1  0  0  0  0
 13 41  1  0  0  0  0
 14 42  1  0  0  0  0
 14 43  1  0  0  0  0
 15 44  1  0  0  0  0
 15 45  1  0  0  0  0
 16 46  1  0  0  0  0
 16 47  1  0  0  0  0
 17 48  1  0  0  0  0
 18 49  1  0  0  0  0
 19 50  1  0  0  0  0
 20 51  1  0  0  0  0
 22 52  1  0  0  0  0
 22 53  1  0  0  0  0
 22 54  1  0  0  0  0
 23 55  1  0  0  0  0
 23 56  1  0  0  0  0
 23 57  1  0  0  0  0
 26 58  1  0  0  0  0
 27 59  1  0  0  0  0
 35 60  1  0  0  0  0
M  END
> <SMILES>
C[C@@H]1CN2[C@H]([C@H](C)N1C#N)C1(Cc3cc4c(noc4c(c32)F)N2CC[C@H](O)C2)C(=O)NC(=O)NC1=O

> <FORMATTED_ID>
H3D-004912

> <MOLFORMULA>
C23H24FN7O5

> <Exact Mass>
497.18

> <XLogP>
-0.37

> <TPSA_NOPS>
155.3

> <s_m_source_file>
ligprep_h3d.sdf

> <i_m_source_file_index>
704

> <i_lp_mmshare_version>
55123

> <i_f3d_flags>
0

> <s_epik_input>
Tz1DMVtOSF1DKD1PKVtOSF1DKD1PKUMxMltDQEBIXTNOKFtDSDJdW0NAQEhdKFtDSDNdKU4oQyNOKVtDQEhdM1tDSDNdKWM0YyhbQ0gyXTIpW2NIXWM1YyhjNEYpb25jNU42W0NIMl1bQ0gyXVtDQEhdKFtPSF0pW0NIMl02

> <s_epik_cmdline>
J2VwaWtfcHl0aG9uJywgJy1waHQnLCAnMC41JywgJy1waCcsICc3LjUnLCAnLXRuJywgJzgnLCAnLW1hJywgJzUwMCcsICctaW1hZScsICc8aW5maWxlLm1hZT4nLCAnLW9tYWUnLCAnPG91dGZpbGUubWFlPic=

> <r_lp_tautomer_probability>
1

> <r_epik_Ionization_Penalty>
0.218707

> <r_epik_Ionization_Penalty_Charging>
0

> <r_epik_Ionization_Penalty_Neutral>
0.218707

> <r_epik_State_Penalty>
0.208986

> <r_epik_Charging_Adjusted_Penalty>
0.208986

> <i_epik_Tot_Q>
0

> <i_epik_Tot_abs_Q>
0

> <s_lp_Force_Field>
S-OPLS

> <r_lp_Energy>
51.111

> <b_lp_Chiralities_Consistent>
1

> <s_lp_Variant>
ligprep_h3d.sdf:704-1

> <ROCS_ShapeQuery>
_7L13

> <ROCS_TanimotoCombo>
0.735 

> <ROCS_ShapeTanimoto>
0.611 

> <ROCS_ColorTanimoto>
0.125 

> <ROCS_RefTversky>
0.766 

> <ROCS_RefColorTversky>
0.297 

> <ROCS_RefTverskyCombo>
1.063 

> <ROCS_FitTversky>
0.750 

> <ROCS_FitColorTversky>
0.177 

> <ROCS_FitTverskyCombo>
0.927 

> <ROCS_ColorScore>
-2.773

> <ROCS_Overlap>
1274.098

> <ROCS_Rank>
601                 

$$$$
ligprep_h3d.sdf:1818_530
  -OEChem-08212117123D

 55 59  0     0  0  0  0  0  0999 V2000
  -22.3277   -3.8285  -33.8544 C   0  0  0  0  0  0  0  0  0  0  0  0
  -22.1285   -3.8379  -32.4739 C   0  0  0  0  0  0  0  0  0  0  0  0
  -19.4634   -4.3352  -29.9928 C   0  0  0  0  0  0  0  0  0  0  0  0
  -21.3609   -4.3691  -34.7023 C   0  0  0  0  0  0  0  0  0  0  0  0
  -25.7192   -5.2266  -24.2607 C   0  0  0  0  0  0  0  0  0  0  0  0
  -24.3205   -3.9447  -22.7649 C   0  0  0  0  0  0  0  0  0  0  0  0
  -19.2626   -4.3443  -28.6119 C   0  0  0  0  0  0  0  0  0  0  0  0
  -24.7141   -5.1955  -25.2273 C   0  0  0  0  0  0  0  0  0  0  0  0
  -23.3153   -3.9136  -23.7315 C   0  0  0  0  0  0  0  0  0  0  0  0
  -21.8487   -4.4700  -29.6468 C   0  0  0  0  0  0  0  0  0  0  0  0
  -19.9956   -4.9281  -32.7890 C   0  0  0  0  0  0  0  0  0  0  0  0
  -20.7554   -4.3973  -30.5093 C   0  0  0  0  0  0  0  0  0  0  0  0
  -20.9625   -4.3876  -31.9412 C   0  0  0  0  0  0  0  0  0  0  0  0
  -21.6435   -4.4783  -28.2618 C   0  0  0  0  0  0  0  0  0  0  0  0
  -20.1949   -4.9188  -34.1696 C   0  0  0  0  0  0  0  0  0  0  0  0
  -25.5224   -4.6012  -23.0295 C   0  0  0  0  0  0  0  0  0  0  0  0
  -20.3509   -4.4159  -27.7344 C   0  0  0  0  0  0  0  0  0  0  0  0
  -23.5122   -4.5390  -24.9627 C   0  0  0  0  0  0  0  0  0  0  0  0
  -21.1391   -4.4481  -25.5702 C   0  0  0  0  0  0  0  0  0  0  0  0
  -22.7944   -4.5722  -27.3319 C   0  0  0  0  0  0  0  0  0  0  0  0
  -19.1764   -5.4863  -35.0632 C   0  0  0  0  0  0  0  0  0  0  0  0
  -19.8462   -7.8909  -34.5454 C   0  0  0  0  0  0  0  0  0  0  0  0
  -18.6998   -7.3223  -36.6493 C   0  0  0  0  0  0  0  0  0  0  0  0
  -20.7863   -8.7700  -35.3616 C   0  0  0  0  0  0  0  0  0  0  0  0
  -19.6947   -8.2155  -37.3759 C   0  0  0  0  0  0  0  0  0  0  0  0
  -26.5972   -4.6345  -21.9960 C   0  0  0  0  0  0  0  0  0  0  0  0
  -20.1112   -4.4138  -26.3550 N   0  0  0  0  0  0  0  0  0  0  0  0
  -22.4706   -4.5068  -25.9638 N   0  0  0  0  0  0  0  0  0  0  0  0
  -19.2706   -6.8395  -35.3929 N   0  0  0  0  0  0  0  0  0  0  0  0
  -23.9076   -4.7625  -27.8145 O   0  0  0  0  0  0  0  0  0  0  0  0
  -18.3023   -4.7138  -35.4536 O   0  0  0  0  0  0  0  0  0  0  0  0
  -20.1184   -9.2791  -36.5187 O   0  0  0  0  0  0  0  0  0  0  0  0
  -27.7162   -5.3108  -22.3915 F   0  0  0  0  0  0  0  0  0  0  0  0
  -26.2147   -5.2313  -20.8284 F   0  0  0  0  0  0  0  0  0  0  0  0
  -27.0278   -3.3876  -21.6458 F   0  0  0  0  0  0  0  0  0  0  0  0
  -23.2356   -3.4003  -34.2692 H   0  0  0  0  0  0  0  0  0  0  0  0
  -22.8915   -3.4126  -31.8261 H   0  0  0  0  0  0  0  0  0  0  0  0
  -18.6005   -4.2781  -30.6520 H   0  0  0  0  0  0  0  0  0  0  0  0
  -21.5268   -4.3558  -35.7763 H   0  0  0  0  0  0  0  0  0  0  0  0
  -26.6534   -5.7385  -24.4762 H   0  0  0  0  0  0  0  0  0  0  0  0
  -24.1589   -3.4542  -21.8086 H   0  0  0  0  0  0  0  0  0  0  0  0
  -18.2484   -4.2944  -28.2225 H   0  0  0  0  0  0  0  0  0  0  0  0
  -24.8782   -5.6866  -26.1832 H   0  0  0  0  0  0  0  0  0  0  0  0
  -22.3829   -3.3982  -23.5152 H   0  0  0  0  0  0  0  0  0  0  0  0
  -22.8557   -4.5206  -30.0550 H   0  0  0  0  0  0  0  0  0  0  0  0
  -19.0844   -5.3572  -32.3767 H   0  0  0  0  0  0  0  0  0  0  0  0
  -20.9971   -4.4350  -24.4769 H   0  0  0  0  0  0  0  0  0  0  0  0
  -20.3728   -7.4773  -33.6821 H   0  0  0  0  0  0  0  0  0  0  0  0
  -19.0019   -8.4851  -34.1760 H   0  0  0  0  0  0  0  0  0  0  0  0
  -17.8021   -7.8926  -36.3829 H   0  0  0  0  0  0  0  0  0  0  0  0
  -18.3947   -6.4872  -37.2871 H   0  0  0  0  0  0  0  0  0  0  0  0
  -21.1079   -9.6271  -34.7616 H   0  0  0  0  0  0  0  0  0  0  0  0
  -21.6855   -8.2215  -35.6661 H   0  0  0  0  0  0  0  0  0  0  0  0
  -20.5674   -7.6495  -37.7230 H   0  0  0  0  0  0  0  0  0  0  0  0
  -19.2194   -8.6655  -38.2532 H   0  0  0  0  0  0  0  0  0  0  0  0
  1  2  1  0  0  0  0
  1  4  2  0  0  0  0
  2 13  2  0  0  0  0
  3  7  1  0  0  0  0
  3 12  2  0  0  0  0
  4 15  1  0  0  0  0
  5  8  1  0  0  0  0
  5 16  2  0  0  0  0
  6  9  2  0  0  0  0
  6 16  1  0  0  0  0
  7 17  2  0  0  0  0
  8 18  2  0  0  0  0
  9 18  1  0  0  0  0
 10 12  1  0  0  0  0
 10 14  2  0  0  0  0
 11 13  1  0  0  0  0
 11 15  2  0  0  0  0
 12 13  1  0  0  0  0
 14 17  1  0  0  0  0
 14 20  1  0  0  0  0
 15 21  1  0  0  0  0
 16 26  1  0  0  0  0
 17 27  1  0  0  0  0
 18 28  1  0  0  0  0
 19 27  2  0  0  0  0
 19 28  1  0  0  0  0
 20 28  1  0  0  0  0
 20 30  2  0  0  0  0
 21 29  1  0  0  0  0
 21 31  2  0  0  0  0
 22 24  1  0  0  0  0
 22 29  1  0  0  0  0
 23 25  1  0  0  0  0
 23 29  1  0  0  0  0
 24 32  1  0  0  0  0
 25 32  1  0  0  0  0
 26 33  1  0  0  0  0
 26 34  1  0  0  0  0
 26 35  1  0  0  0  0
  1 36  1  0  0  0  0
  2 37  1  0  0  0  0
  3 38  1  0  0  0  0
  4 39  1  0  0  0  0
  5 40  1  0  0  0  0
  6 41  1  0  0  0  0
  7 42  1  0  0  0  0
  8 43  1  0  0  0  0
  9 44  1  0  0  0  0
 10 45  1  0  0  0  0
 11 46  1  0  0  0  0
 19 47  1  0  0  0  0
 22 48  1  0  0  0  0
 22 49  1  0  0  0  0
 23 50  1  0  0  0  0
 23 51  1  0  0  0  0
 24 52  1  0  0  0  0
 24 53  1  0  0  0  0
 25 54  1  0  0  0  0
 25 55  1  0  0  0  0
M  END
> <SMILES>
FC(F)(F)c1ccc(cc1)N1C=Nc2ccc(cc2C1=O)-c1cccc(c1)C(=O)N1CCOCC1

> <FORMATTED_ID>
H3D-003875

> <MOLFORMULA>
C26H20F3N3O3

> <Exact Mass>
479.15

> <XLogP>
5.15

> <TPSA_NOPS>
62.2

> <s_m_source_file>
ligprep_h3d.sdf

> <i_m_source_file_index>
1818

> <i_lp_mmshare_version>
55123

> <i_f3d_flags>
0

> <s_epik_input>
RkMoRikoRiljMVtjSF1bY0hdYyhbY0hdW2NIXTEpLW4oW2NIXW4yKWMoPU8pYyhjMjMpW2NIXWMoW2NIXVtjSF0zKS1jNFtjSF1bY0hdW2NIXWMoW2NIXTQpQyg9TylONVtDSDJdW0NIMl1PW0NIMl1bQ0gyXTU=

> <s_epik_cmdline>
J2VwaWtfcHl0aG9uJywgJy1waHQnLCAnMC41JywgJy1waCcsICc3LjUnLCAnLXRuJywgJzgnLCAnLW1hJywgJzUwMCcsICctaW1hZScsICc8aW5maWxlLm1hZT4nLCAnLW9tYWUnLCAnPG91dGZpbGUubWFlPic=

> <r_lp_tautomer_probability>
1

> <r_epik_Ionization_Penalty>
1.97528e-07

> <r_epik_Ionization_Penalty_Charging>
2.67083e-10

> <r_epik_Ionization_Penalty_Neutral>
1.97261e-07

> <r_epik_State_Penalty>
-0

> <r_epik_Charging_Adjusted_Penalty>
2.67083e-10

> <i_epik_Tot_Q>
0

> <i_epik_Tot_abs_Q>
0

> <s_lp_Force_Field>
S-OPLS

> <r_lp_Energy>
62.6367

> <b_lp_Chiralities_Consistent>
1

> <s_lp_Variant>
ligprep_h3d.sdf:1818-1

> <ROCS_ShapeQuery>
_7L13

> <ROCS_TanimotoCombo>
0.752 

> <ROCS_ShapeTanimoto>
0.627 

> <ROCS_ColorTanimoto>
0.125 

> <ROCS_RefTversky>
0.766 

> <ROCS_RefColorTversky>
0.222 

> <ROCS_RefTverskyCombo>
0.989 

> <ROCS_FitTversky>
0.775 

> <ROCS_FitColorTversky>
0.222 

> <ROCS_FitTverskyCombo>
0.997 

> <ROCS_ColorScore>
-2.000

> <ROCS_Overlap>
1271.681

> <ROCS_Rank>
602                 

$$$$
ligprep_h3d.sdf:1181_1833
  -OEChem-08212117123D

 76 80  0     1  0  0  0  0  0999 V2000
  -19.6242   -4.5698  -32.2669 C   0  0  0  0  0  0  0  0  0  0  0  0
  -20.4294   -6.8189  -31.9058 C   0  0  0  0  0  0  0  0  0  0  0  0
  -19.0447   -4.9706  -33.4707 C   0  0  0  0  0  0  0  0  0  0  0  0
  -19.8499   -7.2197  -33.1096 C   0  0  0  0  0  0  0  0  0  0  0  0
  -16.6132   -5.3343  -26.3724 C   0  0  0  0  0  0  0  0  0  0  0  0
  -22.8145   -4.2047  -29.0267 C   0  0  0  0  0  0  0  0  0  0  0  0
  -20.7132   -4.3815  -25.4457 C   0  0  0  0  0  0  0  0  0  0  0  0
  -17.2188   -6.5901  -26.1778 C   0  0  0  0  0  0  0  0  0  0  0  0
  -20.7959   -4.7361  -27.8358 C   0  0  0  0  0  0  0  0  0  0  0  0
  -20.3165   -5.4940  -31.4844 C   0  0  0  0  0  0  0  0  0  0  0  0
  -20.9174   -5.0783  -30.2357 C   0  0  0  0  0  0  0  0  0  0  0  0
  -19.1576   -6.2955  -33.8921 C   0  0  0  0  0  0  0  0  0  0  0  0
  -22.2250   -4.6088  -30.2271 C   0  0  0  0  0  0  0  0  0  0  0  0
  -20.2026   -5.1425  -29.0431 C   0  0  0  0  0  0  0  0  0  0  0  0
  -22.1231   -4.2584  -27.8195 C   0  0  0  0  0  0  0  0  0  0  0  0
  -20.0993   -4.7901  -26.6209 C   0  0  0  0  0  0  0  0  0  0  0  0
  -22.0144   -3.9293  -25.5294 C   0  0  0  0  0  0  0  0  0  0  0  0
  -17.6647   -4.4730  -26.5702 C   0  0  0  0  0  0  0  0  0  0  0  0
  -22.7160   -3.4880  -24.3361 C   0  0  0  0  0  0  0  0  0  0  0  0
  -18.8796   -8.0909  -37.1474 C   0  0  0  0  0  0  0  0  0  0  0  0
  -20.2807   -6.1720  -36.7561 C   0  0  0  0  0  0  0  0  0  0  0  0
  -19.9305   -8.6251  -38.1165 C   0  0  0  0  0  0  0  0  0  0  0  0
  -21.2991   -6.7519  -37.7335 C   0  0  0  0  0  0  0  0  0  0  0  0
  -23.0374   -4.5179  -31.4798 C   0  0  0  0  0  0  0  0  0  0  0  0
  -18.7943   -5.6607  -29.1302 C   0  0  0  0  0  0  0  0  0  0  0  0
  -17.6797   -3.0194  -26.8267 C   0  0  0  0  0  0  0  0  0  0  0  0
  -27.2608   -5.6529  -22.1472 C   0  0  0  0  0  0  0  0  0  0  0  0
  -18.5336   -6.7269  -35.1877 C   0  0  0  0  0  0  0  0  0  0  0  0
  -24.8530   -2.5517  -23.4155 C   0  0  0  0  0  0  0  0  0  0  0  0
  -26.1128   -3.3759  -23.2315 C   0  0  0  0  0  0  0  0  0  0  0  0
  -18.5516   -6.5360  -26.2456 N   0  0  0  0  0  0  0  0  0  0  0  0
  -22.7214   -3.8612  -26.6806 N   0  0  0  0  0  0  0  0  0  0  0  0
  -24.6626   -5.1162  -21.8261 N   0  0  0  0  0  0  0  0  0  0  0  0
  -18.7923   -5.2356  -26.4850 N   0  0  0  0  0  0  0  0  0  0  0  0
  -19.5240   -7.2598  -36.1210 N   0  0  0  0  0  0  0  0  0  0  0  0
  -24.0336   -3.0427  -24.5000 N   0  0  0  0  0  0  0  0  0  0  0  0
  -22.1472   -3.4934  -23.2292 O   0  0  0  0  0  0  0  0  0  0  0  0
  -25.6753   -5.7417  -24.2082 O   0  0  0  0  0  0  0  0  0  0  0  0
  -20.6427   -7.5458  -38.7226 O   0  0  0  0  0  0  0  0  0  0  0  0
  -25.7617   -5.0773  -22.9159 S   0  0  1  0  0  0  0  0  0  0  0  0
  -19.5270   -3.5336  -31.9518 H   0  0  0  0  0  0  0  0  0  0  0  0
  -20.9664   -7.5509  -31.3072 H   0  0  0  0  0  0  0  0  0  0  0  0
  -18.5062   -4.2441  -34.0734 H   0  0  0  0  0  0  0  0  0  0  0  0
  -19.9432   -8.2539  -33.4306 H   0  0  0  0  0  0  0  0  0  0  0  0
  -15.5610   -5.0898  -26.3689 H   0  0  0  0  0  0  0  0  0  0  0  0
  -23.8407   -3.8388  -29.0348 H   0  0  0  0  0  0  0  0  0  0  0  0
  -20.1959   -4.4132  -24.4907 H   0  0  0  0  0  0  0  0  0  0  0  0
  -16.7443   -7.5424  -25.9892 H   0  0  0  0  0  0  0  0  0  0  0  0
  -18.3619   -8.9371  -36.6813 H   0  0  0  0  0  0  0  0  0  0  0  0
  -18.1379   -7.5020  -37.7026 H   0  0  0  0  0  0  0  0  0  0  0  0
  -19.6004   -5.4991  -37.2944 H   0  0  0  0  0  0  0  0  0  0  0  0
  -20.8110   -5.5844  -35.9980 H   0  0  0  0  0  0  0  0  0  0  0  0
  -19.4443   -9.1941  -38.9155 H   0  0  0  0  0  0  0  0  0  0  0  0
  -20.6388   -9.2955  -37.6150 H   0  0  0  0  0  0  0  0  0  0  0  0
  -22.0545   -7.3589  -37.2195 H   0  0  0  0  0  0  0  0  0  0  0  0
  -21.8224   -5.9418  -38.2513 H   0  0  0  0  0  0  0  0  0  0  0  0
  -22.8988   -3.5380  -31.9493 H   0  0  0  0  0  0  0  0  0  0  0  0
  -22.7459   -5.2951  -32.1957 H   0  0  0  0  0  0  0  0  0  0  0  0
  -24.1038   -4.6591  -31.2689 H   0  0  0  0  0  0  0  0  0  0  0  0
  -18.7901   -6.7454  -28.9978 H   0  0  0  0  0  0  0  0  0  0  0  0
  -18.3520   -5.4172  -30.1002 H   0  0  0  0  0  0  0  0  0  0  0  0
  -18.1660   -5.2040  -28.3603 H   0  0  0  0  0  0  0  0  0  0  0  0
  -17.6392   -2.8063  -27.9075 H   0  0  0  0  0  0  0  0  0  0  0  0
  -18.5868   -2.5375  -26.4238 H   0  0  0  0  0  0  0  0  0  0  0  0
  -16.8257   -2.5067  -26.3517 H   0  0  0  0  0  0  0  0  0  0  0  0
  -27.1418   -6.7113  -21.9102 H   0  0  0  0  0  0  0  0  0  0  0  0
  -27.4257   -5.0735  -21.2376 H   0  0  0  0  0  0  0  0  0  0  0  0
  -28.0844   -5.5081  -22.8478 H   0  0  0  0  0  0  0  0  0  0  0  0
  -18.0314   -5.8835  -35.6741 H   0  0  0  0  0  0  0  0  0  0  0  0
  -17.7790   -7.5028  -35.0213 H   0  0  0  0  0  0  0  0  0  0  0  0
  -25.0859   -1.5033  -23.6260 H   0  0  0  0  0  0  0  0  0  0  0  0
  -24.2402   -2.5938  -22.5099 H   0  0  0  0  0  0  0  0  0  0  0  0
  -26.7194   -3.3526  -24.1418 H   0  0  0  0  0  0  0  0  0  0  0  0
  -26.7174   -3.0130  -22.3949 H   0  0  0  0  0  0  0  0  0  0  0  0
  -23.7402   -4.8052  -22.1445 H   0  0  0  0  0  0  0  0  0  0  0  0
  -24.4291   -2.9993  -25.4335 H   0  0  0  0  0  0  0  0  0  0  0  0
  1  3  1  0  0  0  0
  1 10  2  0  0  0  0
  2  4  2  0  0  0  0
  2 10  1  0  0  0  0
  3 12  2  0  0  0  0
  4 12  1  0  0  0  0
  5  8  1  0  0  0  0
  5 18  2  0  0  0  0
  6 13  2  0  0  0  0
  6 15  1  0  0  0  0
  7 16  1  0  0  0  0
  7 17  2  0  0  0  0
  8 31  2  0  0  0  0
  9 14  1  0  0  0  0
  9 15  1  0  0  0  0
  9 16  2  0  0  0  0
 10 11  1  0  0  0  0
 11 13  1  0  0  0  0
 11 14  2  0  0  0  0
 12 28  1  0  0  0  0
 13 24  1  0  0  0  0
 14 25  1  0  0  0  0
 15 32  2  0  0  0  0
 16 34  1  0  0  0  0
 17 19  1  0  0  0  0
 17 32  1  0  0  0  0
 18 26  1  0  0  0  0
 18 34  1  0  0  0  0
 19 36  1  0  0  0  0
 19 37  2  0  0  0  0
 20 22  1  0  0  0  0
 20 35  1  0  0  0  0
 21 23  1  0  0  0  0
 21 35  1  0  0  0  0
 22 39  1  0  0  0  0
 23 39  1  0  0  0  0
 27 40  1  0  0  0  0
 28 35  1  0  0  0  0
 29 30  1  0  0  0  0
 29 36  1  0  0  0  0
 30 40  1  0  0  0  0
 31 34  1  0  0  0  0
 33 40  2  0  0  0  0
 38 40  2  0  0  0  0
  1 41  1  0  0  0  0
  2 42  1  0  0  0  0
  3 43  1  0  0  0  0
  4 44  1  0  0  0  0
  5 45  1  0  0  0  0
  6 46  1  0  0  0  0
  7 47  1  0  0  0  0
  8 48  1  0  0  0  0
 20 49  1  0  0  0  0
 20 50  1  0  0  0  0
 21 51  1  0  0  0  0
 21 52  1  0  0  0  0
 22 53  1  0  0  0  0
 22 54  1  0  0  0  0
 23 55  1  0  0  0  0
 23 56  1  0  0  0  0
 24 57  1  0  0  0  0
 24 58  1  0  0  0  0
 24 59  1  0  0  0  0
 25 60  1  0  0  0  0
 25 61  1  0  0  0  0
 25 62  1  0  0  0  0
 26 63  1  0  0  0  0
 26 64  1  0  0  0  0
 26 65  1  0  0  0  0
 27 66  1  0  0  0  0
 27 67  1  0  0  0  0
 27 68  1  0  0  0  0
 28 69  1  0  0  0  0
 28 70  1  0  0  0  0
 29 71  1  0  0  0  0
 29 72  1  0  0  0  0
 30 73  1  0  0  0  0
 30 74  1  0  0  0  0
 33 75  1  0  0  0  0
 36 76  1  0  0  0  0
M  END
> <SMILES>
Cc1cc2nc(cc(c2c(c1-c1ccc(cc1)CN1CCOCC1)C)-n1nccc1C)C(=O)NCCS(=N)(=O)C

> <FORMATTED_ID>
H3D-008201

> <MOLFORMULA>
C30H36N6O3S

> <Exact Mass>
560.26

> <XLogP>
3.6

> <TPSA_NOPS>
121.6

> <s_m_source_file>
ligprep_h3d.sdf

> <i_m_source_file_index>
1181

> <i_lp_mmshare_version>
55123

> <i_f3d_flags>
0

> <s_epik_input>
W05IXT1bU0BAXSg9TykoW0NIM10pW0NIMl1bQ0gyXVtOSF1DKD1PKWMobjEpW2NIXWMoLW4ybltjSF1bY0hdYzJbQ0gzXSljKGMxMyljKFtDSDNdKWMoYyhbQ0gzXSlbY0hdMyktYzRbY0hdW2NIXWMoW2NIXVtjSF00KVtDSDJdTjVbQ0gyXVtDSDJdT1tDSDJdW0NIMl01

> <s_epik_cmdline>
J2VwaWtfcHl0aG9uJywgJy1waHQnLCAnMC41JywgJy1waCcsICc3LjUnLCAnLXRuJywgJzgnLCAnLW1hJywgJzUwMCcsICctaW1hZScsICc8aW5maWxlLm1hZT4nLCAnLW9tYWUnLCAnPG91dGZpbGUubWFlPic=

> <r_lp_tautomer_probability>
1

> <r_epik_Ionization_Penalty>
0.105565

> <r_epik_Ionization_Penalty_Charging>
0

> <r_epik_Ionization_Penalty_Neutral>
0.105565

> <r_epik_State_Penalty>
0.095414

> <r_epik_Charging_Adjusted_Penalty>
0.095414

> <i_epik_Tot_Q>
0

> <i_epik_Tot_abs_Q>
0

> <s_lp_Force_Field>
S-OPLS

> <r_lp_Energy>
46.1697

> <b_lp_Chiralities_Consistent>
1

> <s_lp_Variant>
ligprep_h3d.sdf:1181-1

> <ROCS_ShapeQuery>
_7L13

> <ROCS_TanimotoCombo>
0.682 

> <ROCS_ShapeTanimoto>
0.581 

> <ROCS_ColorTanimoto>
0.100 

> <ROCS_RefTversky>
0.766 

> <ROCS_RefColorTversky>
0.210 

> <ROCS_RefTverskyCombo>
0.976 

> <ROCS_FitTversky>
0.706 

> <ROCS_FitColorTversky>
0.162 

> <ROCS_FitTverskyCombo>
0.868 

> <ROCS_ColorScore>
-1.918

> <ROCS_Overlap>
1278.502

> <ROCS_Rank>
603                 

$$$$
ligprep_h3d.sdf:706_82
  -OEChem-08212117123D

 60 65  0     1  0  0  0  0  0999 V2000
  -22.4205   -2.8999  -22.0410 C   0  0  0  0  0  0  0  0  0  0  0  0
  -20.9562   -5.1419  -29.5376 C   0  0  0  0  0  0  0  0  0  0  0  0
  -21.7372   -4.3777  -30.4071 C   0  0  0  0  0  0  0  0  0  0  0  0
  -21.0776   -4.9242  -28.1439 C   0  0  0  0  0  0  0  0  0  0  0  0
  -21.9880   -3.9922  -27.5959 C   0  0  0  0  0  0  0  0  0  0  0  0
  -22.5976   -3.4462  -29.8689 C   0  0  0  0  0  0  0  0  0  0  0  0
  -22.7530   -3.2186  -28.5015 C   0  0  0  0  0  0  0  0  0  0  0  0
  -21.9299   -4.2494  -31.7952 C   0  0  0  0  0  0  0  0  0  0  0  0
  -18.9081   -3.8413  -26.2856 C   0  0  0  0  0  0  0  0  0  0  0  0
  -19.1978   -6.1014  -25.0777 C   0  0  0  0  0  0  0  0  0  0  0  0
  -16.9668   -5.3324  -25.8599 C   0  0  0  0  0  0  0  0  0  0  0  0
  -20.2117   -5.7480  -27.2312 C   0  0  0  0  0  0  0  0  0  0  0  0
  -20.6334   -6.8387  -34.0713 C   0  0  0  0  0  0  0  0  0  0  0  0
  -21.3069   -6.4838  -32.7501 C   0  0  0  0  0  0  0  0  0  0  0  0
  -20.3481   -4.4886  -33.7262 C   0  0  0  0  0  0  0  0  0  0  0  0
  -23.1514   -2.9712  -25.6655 C   0  0  0  0  0  0  0  0  0  0  0  0
  -21.1768   -4.4948  -25.2514 C   0  0  2  0  0  0  0  0  0  0  0  0
  -19.6202   -5.7205  -34.2619 C   0  0  2  0  0  0  0  0  0  0  0  0
  -23.5201   -3.2979  -24.2202 C   0  0  1  0  0  0  0  0  0  0  0  0
  -20.9921   -3.5278  -24.0335 C   0  0  2  0  0  0  0  0  0  0  0  0
  -19.8557   -4.9971  -25.9233 C   0  0  0  0  0  0  0  0  0  0  0  0
  -24.3398   -4.5813  -24.0795 C   0  0  0  0  0  0  0  0  0  0  0  0
  -19.9334   -3.9784  -23.0185 C   0  0  0  0  0  0  0  0  0  0  0  0
  -22.5045   -2.5136  -20.9504 N   0  0  0  0  0  0  0  0  0  0  0  0
  -22.8341   -3.3127  -32.0970 N   0  0  0  0  0  0  0  0  0  0  0  0
  -17.5651   -4.1788  -26.3467 N   0  0  0  0  0  0  0  0  0  0  0  0
  -17.8240   -6.2192  -25.2237 N   0  0  0  0  0  0  0  0  0  0  0  0
  -22.3224   -3.3508  -23.3145 N   0  0  0  0  0  0  0  0  0  0  0  0
  -22.1051   -3.8419  -26.2104 N   0  0  3  0  0  0  0  0  0  0  0  0
  -21.2418   -5.0253  -32.7037 N   0  0  0  0  0  0  0  0  0  0  0  0
  -19.3009   -2.7088  -26.5657 O   0  0  0  0  0  0  0  0  0  0  0  0
  -19.8442   -6.8884  -24.3850 O   0  0  0  0  0  0  0  0  0  0  0  0
  -15.7547   -5.5355  -25.9493 O   0  0  0  0  0  0  0  0  0  0  0  0
  -23.2540   -2.8038  -30.8735 O   0  0  0  0  0  0  0  0  0  0  0  0
  -19.2850   -5.5805  -35.6282 O   0  0  0  0  0  0  0  0  0  0  0  0
  -23.6790   -2.3325  -28.1100 F   0  0  0  0  0  0  0  0  0  0  0  0
  -20.2715   -5.8918  -29.9209 H   0  0  0  0  0  0  0  0  0  0  0  0
  -20.7659   -6.6579  -27.0043 H   0  0  0  0  0  0  0  0  0  0  0  0
  -19.3034   -6.0309  -27.7596 H   0  0  0  0  0  0  0  0  0  0  0  0
  -20.1179   -7.8015  -33.9767 H   0  0  0  0  0  0  0  0  0  0  0  0
  -21.3606   -6.8999  -34.8865 H   0  0  0  0  0  0  0  0  0  0  0  0
  -22.3550   -6.8063  -32.7451 H   0  0  0  0  0  0  0  0  0  0  0  0
  -20.7905   -6.9471  -31.9020 H   0  0  0  0  0  0  0  0  0  0  0  0
  -19.6399   -3.7970  -33.2543 H   0  0  0  0  0  0  0  0  0  0  0  0
  -20.9053   -3.9624  -34.5099 H   0  0  0  0  0  0  0  0  0  0  0  0
  -24.0246   -2.9906  -26.3406 H   0  0  0  0  0  0  0  0  0  0  0  0
  -22.8295   -1.9189  -25.6264 H   0  0  0  0  0  0  0  0  0  0  0  0
  -21.7229   -5.3650  -24.8512 H   0  0  0  0  0  0  0  0  0  0  0  0
  -18.6875   -5.9256  -33.6969 H   0  0  0  0  0  0  0  0  0  0  0  0
  -24.1402   -2.4550  -23.8405 H   0  0  0  0  0  0  0  0  0  0  0  0
  -20.6947   -2.5567  -24.3832 H   0  0  0  0  0  0  0  0  0  0  0  0
  -23.7610   -5.4280  -24.4429 H   0  0  0  0  0  0  0  0  0  0  0  0
  -25.2556   -4.4973  -24.6609 H   0  0  0  0  0  0  0  0  0  0  0  0
  -24.5926   -4.7424  -23.0336 H   0  0  0  0  0  0  0  0  0  0  0  0
  -20.1919   -4.9620  -22.6339 H   0  0  0  0  0  0  0  0  0  0  0  0
  -19.8924   -3.2693  -22.1952 H   0  0  0  0  0  0  0  0  0  0  0  0
  -18.9607   -4.0252  -23.5023 H   0  0  0  0  0  0  0  0  0  0  0  0
  -16.9518   -3.5091  -26.7967 H   0  0  0  0  0  0  0  0  0  0  0  0
  -17.3971   -7.0483  -24.8191 H   0  0  0  0  0  0  0  0  0  0  0  0
  -18.9080   -6.4288  -35.9110 H   0  0  0  0  0  0  0  0  0  0  0  0
  1 24  3  0  0  0  0
  1 28  1  0  0  0  0
  2  3  2  0  0  0  0
  2  4  1  0  0  0  0
  3  6  1  0  0  0  0
  3  8  1  0  0  0  0
  4  5  2  0  0  0  0
  4 12  1  0  0  0  0
  5  7  1  0  0  0  0
  5 29  1  0  0  0  0
  6  7  2  0  0  0  0
  6 34  1  0  0  0  0
  7 36  1  0  0  0  0
  8 25  2  0  0  0  0
  8 30  1  0  0  0  0
  9 21  1  0  0  0  0
  9 26  1  0  0  0  0
  9 31  2  0  0  0  0
 10 21  1  0  0  0  0
 10 27  1  0  0  0  0
 10 32  2  0  0  0  0
 11 26  1  0  0  0  0
 11 27  1  0  0  0  0
 11 33  2  0  0  0  0
 12 21  1  0  0  0  0
 13 14  1  0  0  0  0
 13 18  1  0  0  0  0
 14 30  1  0  0  0  0
 15 18  1  0  0  0  0
 15 30  1  0  0  0  0
 16 19  1  0  0  0  0
 16 29  1  0  0  0  0
 17 20  1  0  0  0  0
 17 21  1  0  0  0  0
 17 29  1  0  0  0  0
 18 35  1  0  0  0  0
 19 22  1  0  0  0  0
 19 28  1  0  0  0  0
 20 23  1  0  0  0  0
 20 28  1  0  0  0  0
 25 34  1  0  0  0  0
  2 37  1  0  0  0  0
 12 38  1  0  0  0  0
 12 39  1  0  0  0  0
 13 40  1  0  0  0  0
 13 41  1  0  0  0  0
 14 42  1  0  0  0  0
 14 43  1  0  0  0  0
 15 44  1  0  0  0  0
 15 45  1  0  0  0  0
 16 46  1  0  0  0  0
 16 47  1  0  0  0  0
 17 48  1  0  0  0  0
 18 49  1  0  0  0  0
 19 50  1  0  0  0  0
 20 51  1  0  0  0  0
 22 52  1  0  0  0  0
 22 53  1  0  0  0  0
 22 54  1  0  0  0  0
 23 55  1  0  0  0  0
 23 56  1  0  0  0  0
 23 57  1  0  0  0  0
 26 58  1  0  0  0  0
 27 59  1  0  0  0  0
 35 60  1  0  0  0  0
M  END
> <SMILES>
C[C@@H]1CN2[C@H]([C@H](C)N1C#N)C1(Cc3cc4c(noc4c(c32)F)N2CC[C@@H](O)C2)C(=O)NC(=O)NC1=O

> <FORMATTED_ID>
H3D-004914

> <MOLFORMULA>
C23H24FN7O5

> <Exact Mass>
497.18

> <XLogP>
-0.37

> <TPSA_NOPS>
155.3

> <s_m_source_file>
ligprep_h3d.sdf

> <i_m_source_file_index>
706

> <i_lp_mmshare_version>
55123

> <i_f3d_flags>
0

> <s_epik_input>
Tz1DMVtOSF1DKD1PKVtOSF1DKD1PKUMxMltDQEBIXTNOKFtDSDJdW0NAQEhdKFtDSDNdKU4oQyNOKVtDQEhdM1tDSDNdKWM0YyhbQ0gyXTIpW2NIXWM1YyhjNEYpb25jNU42W0NIMl1bQ0gyXVtDQEBIXShbT0hdKVtDSDJdNg==

> <s_epik_cmdline>
J2VwaWtfcHl0aG9uJywgJy1waHQnLCAnMC41JywgJy1waCcsICc3LjUnLCAnLXRuJywgJzgnLCAnLW1hJywgJzUwMCcsICctaW1hZScsICc8aW5maWxlLm1hZT4nLCAnLW9tYWUnLCAnPG91dGZpbGUubWFlPic=

> <r_lp_tautomer_probability>
1

> <r_epik_Ionization_Penalty>
0.218707

> <r_epik_Ionization_Penalty_Charging>
0

> <r_epik_Ionization_Penalty_Neutral>
0.218707

> <r_epik_State_Penalty>
0.208986

> <r_epik_Charging_Adjusted_Penalty>
0.208986

> <i_epik_Tot_Q>
0

> <i_epik_Tot_abs_Q>
0

> <s_lp_Force_Field>
S-OPLS

> <r_lp_Energy>
52.0081

> <b_lp_Chiralities_Consistent>
1

> <s_lp_Variant>
ligprep_h3d.sdf:706-1

> <ROCS_ShapeQuery>
_7L13

> <ROCS_TanimotoCombo>
0.735 

> <ROCS_ShapeTanimoto>
0.611 

> <ROCS_ColorTanimoto>
0.125 

> <ROCS_RefTversky>
0.766 

> <ROCS_RefColorTversky>
0.297 

> <ROCS_RefTverskyCombo>
1.063 

> <ROCS_FitTversky>
0.750 

> <ROCS_FitColorTversky>
0.177 

> <ROCS_FitTverskyCombo>
0.927 

> <ROCS_ColorScore>
-2.777

> <ROCS_Overlap>
1273.965

> <ROCS_Rank>
604                 

$$$$
ligprep_h3d.sdf:1410_1105
  -OEChem-08212117123D

 71 75  0     1  0  0  0  0  0999 V2000
  -16.4012   -4.6550  -26.2697 C   0  0  0  0  0  0  0  0  0  0  0  0
  -22.6528   -4.9198  -29.0278 C   0  0  0  0  0  0  0  0  0  0  0  0
  -20.6015   -4.0302  -25.5248 C   0  0  0  0  0  0  0  0  0  0  0  0
  -16.6070   -3.3008  -26.5949 C   0  0  0  0  0  0  0  0  0  0  0  0
  -20.5699   -4.5696  -27.8813 C   0  0  0  0  0  0  0  0  0  0  0  0
  -21.9671   -5.1648  -30.2202 C   0  0  0  0  0  0  0  0  0  0  0  0
  -19.8800   -4.8160  -29.0805 C   0  0  0  0  0  0  0  0  0  0  0  0
  -21.9792   -4.6208  -27.8467 C   0  0  0  0  0  0  0  0  0  0  0  0
  -19.8913   -4.2684  -26.6927 C   0  0  0  0  0  0  0  0  0  0  0  0
  -20.5790   -5.1130  -30.2469 C   0  0  0  0  0  0  0  0  0  0  0  0
  -21.9782   -4.1027  -25.5891 C   0  0  0  0  0  0  0  0  0  0  0  0
  -17.6607   -5.2027  -26.2673 C   0  0  0  0  0  0  0  0  0  0  0  0
  -20.1331   -7.2667  -35.8231 C   0  0  0  0  0  0  0  0  0  0  0  0
  -22.7817   -3.8648  -24.4022 C   0  0  0  0  0  0  0  0  0  0  0  0
  -18.5177   -7.0745  -37.5718 C   0  0  0  0  0  0  0  0  0  0  0  0
  -19.0204   -7.0734  -32.9403 C   0  0  0  0  0  0  0  0  0  0  0  0
  -19.8925   -4.8984  -33.8382 C   0  0  0  0  0  0  0  0  0  0  0  0
  -17.8726   -6.7239  -36.2425 C   0  0  0  0  0  0  0  0  0  0  0  0
  -18.9478   -6.4565  -31.5431 C   0  0  0  0  0  0  0  0  0  0  0  0
  -19.7910   -4.2993  -32.4378 C   0  0  0  0  0  0  0  0  0  0  0  0
  -19.7765   -7.8408  -37.1775 C   0  0  1  0  0  0  0  0  0  0  0  0
  -18.8664   -6.0162  -34.0347 C   0  0  0  0  0  0  0  0  0  0  0  0
  -22.7562   -5.4814  -31.4494 C   0  0  0  0  0  0  0  0  0  0  0  0
  -18.3830   -4.7805  -29.1956 C   0  0  0  0  0  0  0  0  0  0  0  0
  -18.1060   -6.5842  -25.9987 C   0  0  0  0  0  0  0  0  0  0  0  0
  -25.1041   -3.7240  -23.4657 C   0  0  0  0  0  0  0  0  0  0  0  0
  -25.9302   -4.9751  -23.2290 C   0  0  0  0  0  0  0  0  0  0  0  0
  -17.8958   -3.0064  -26.7854 N   0  0  0  0  0  0  0  0  0  0  0  0
  -22.6710   -4.3900  -26.7149 N   0  0  0  0  0  0  0  0  0  0  0  0
  -18.5112   -4.1832  -26.5793 N   0  0  0  0  0  0  0  0  0  0  0  0
  -19.9094   -5.3557  -31.4253 N   0  0  0  0  0  0  0  0  0  0  0  0
  -18.9987   -6.6140  -35.3456 N   0  0  0  0  0  0  0  0  0  0  0  0
  -24.1717   -3.9558  -24.5454 N   0  0  0  0  0  0  0  0  0  0  0  0
  -21.2099   -7.4169  -35.2649 O   0  0  0  0  0  0  0  0  0  0  0  0
  -22.2407   -3.5736  -23.3199 O   0  0  0  0  0  0  0  0  0  0  0  0
  -19.4885   -9.2143  -37.0179 O   0  0  0  0  0  0  0  0  0  0  0  0
  -26.8211   -4.7542  -22.1430 O   0  0  0  0  0  0  0  0  0  0  0  0
  -15.4688   -5.1611  -26.0663 H   0  0  0  0  0  0  0  0  0  0  0  0
  -23.7414   -4.9626  -29.0225 H   0  0  0  0  0  0  0  0  0  0  0  0
  -20.1001   -3.7937  -24.5905 H   0  0  0  0  0  0  0  0  0  0  0  0
  -15.8714   -2.5164  -26.7011 H   0  0  0  0  0  0  0  0  0  0  0  0
  -18.7500   -6.1863  -38.1696 H   0  0  0  0  0  0  0  0  0  0  0  0
  -17.8503   -7.7061  -38.1737 H   0  0  0  0  0  0  0  0  0  0  0  0
  -18.2184   -7.8118  -33.0435 H   0  0  0  0  0  0  0  0  0  0  0  0
  -19.9621   -7.6165  -33.0586 H   0  0  0  0  0  0  0  0  0  0  0  0
  -20.9026   -5.2692  -34.0137 H   0  0  0  0  0  0  0  0  0  0  0  0
  -19.7074   -4.1142  -34.5751 H   0  0  0  0  0  0  0  0  0  0  0  0
  -17.1807   -7.5016  -35.9040 H   0  0  0  0  0  0  0  0  0  0  0  0
  -17.3599   -5.7563  -36.2766 H   0  0  0  0  0  0  0  0  0  0  0  0
  -19.1508   -7.2182  -30.7800 H   0  0  0  0  0  0  0  0  0  0  0  0
  -17.9274   -6.0890  -31.3782 H   0  0  0  0  0  0  0  0  0  0  0  0
  -18.8225   -3.7912  -32.3435 H   0  0  0  0  0  0  0  0  0  0  0  0
  -20.5739   -3.5445  -32.2867 H   0  0  0  0  0  0  0  0  0  0  0  0
  -20.5886   -7.6993  -37.8637 H   0  0  0  0  0  0  0  0  0  0  0  0
  -17.8576   -5.5959  -33.9952 H   0  0  0  0  0  0  0  0  0  0  0  0
  -22.9990   -4.5604  -31.9912 H   0  0  0  0  0  0  0  0  0  0  0  0
  -22.1957   -6.1446  -32.1190 H   0  0  0  0  0  0  0  0  0  0  0  0
  -23.6909   -5.9966  -31.1972 H   0  0  0  0  0  0  0  0  0  0  0  0
  -17.9713   -5.7731  -28.9945 H   0  0  0  0  0  0  0  0  0  0  0  0
  -18.0783   -4.4645  -30.1976 H   0  0  0  0  0  0  0  0  0  0  0  0
  -17.9561   -4.0667  -28.4847 H   0  0  0  0  0  0  0  0  0  0  0  0
  -18.3219   -6.7309  -24.9278 H   0  0  0  0  0  0  0  0  0  0  0  0
  -19.0186   -6.8418  -26.5629 H   0  0  0  0  0  0  0  0  0  0  0  0
  -17.3460   -7.3284  -26.2926 H   0  0  0  0  0  0  0  0  0  0  0  0
  -25.7390   -2.8747  -23.7372 H   0  0  0  0  0  0  0  0  0  0  0  0
  -24.5311   -3.4706  -22.5686 H   0  0  0  0  0  0  0  0  0  0  0  0
  -25.2760   -5.8117  -22.9645 H   0  0  0  0  0  0  0  0  0  0  0  0
  -26.5147   -5.2450  -24.1146 H   0  0  0  0  0  0  0  0  0  0  0  0
  -24.5644   -4.1341  -25.4640 H   0  0  0  0  0  0  0  0  0  0  0  0
  -19.2602   -9.5737  -37.8959 H   0  0  0  0  0  0  0  0  0  0  0  0
  -27.3276   -5.5740  -22.0258 H   0  0  0  0  0  0  0  0  0  0  0  0
  1  4  1  0  0  0  0
  1 12  2  0  0  0  0
  2  6  2  0  0  0  0
  2  8  1  0  0  0  0
  3  9  1  0  0  0  0
  3 11  2  0  0  0  0
  4 28  2  0  0  0  0
  5  7  1  0  0  0  0
  5  8  1  0  0  0  0
  5  9  2  0  0  0  0
  6 10  1  0  0  0  0
  6 23  1  0  0  0  0
  7 10  2  0  0  0  0
  7 24  1  0  0  0  0
  8 29  2  0  0  0  0
  9 30  1  0  0  0  0
 10 31  1  0  0  0  0
 11 14  1  0  0  0  0
 11 29  1  0  0  0  0
 12 25  1  0  0  0  0
 12 30  1  0  0  0  0
 13 21  1  0  0  0  0
 13 32  1  0  0  0  0
 13 34  2  0  0  0  0
 14 33  1  0  0  0  0
 14 35  2  0  0  0  0
 15 18  1  0  0  0  0
 15 21  1  0  0  0  0
 16 19  1  0  0  0  0
 16 22  1  0  0  0  0
 17 20  1  0  0  0  0
 17 22  1  0  0  0  0
 18 32  1  0  0  0  0
 19 31  1  0  0  0  0
 20 31  1  0  0  0  0
 21 36  1  0  0  0  0
 22 32  1  0  0  0  0
 26 27  1  0  0  0  0
 26 33  1  0  0  0  0
 27 37  1  0  0  0  0
 28 30  1  0  0  0  0
  1 38  1  0  0  0  0
  2 39  1  0  0  0  0
  3 40  1  0  0  0  0
  4 41  1  0  0  0  0
 15 42  1  0  0  0  0
 15 43  1  0  0  0  0
 16 44  1  0  0  0  0
 16 45  1  0  0  0  0
 17 46  1  0  0  0  0
 17 47  1  0  0  0  0
 18 48  1  0  0  0  0
 18 49  1  0  0  0  0
 19 50  1  0  0  0  0
 19 51  1  0  0  0  0
 20 52  1  0  0  0  0
 20 53  1  0  0  0  0
 21 54  1  0  0  0  0
 22 55  1  0  0  0  0
 23 56  1  0  0  0  0
 23 57  1  0  0  0  0
 23 58  1  0  0  0  0
 24 59  1  0  0  0  0
 24 60  1  0  0  0  0
 24 61  1  0  0  0  0
 25 62  1  0  0  0  0
 25 63  1  0  0  0  0
 25 64  1  0  0  0  0
 26 65  1  0  0  0  0
 26 66  1  0  0  0  0
 27 67  1  0  0  0  0
 27 68  1  0  0  0  0
 33 69  1  0  0  0  0
 36 70  1  0  0  0  0
 37 71  1  0  0  0  0
M  END
> <SMILES>
Cc1cc2nc(cc(c2c(c1N1CCC(CC1)N1CC[C@@H](O)C1=O)C)-n1nccc1C)C(=O)NCCO

> <FORMATTED_ID>
H3D-012440

> <MOLFORMULA>
C27H34N6O4

> <Exact Mass>
506.26

> <XLogP>
1.13

> <TPSA_NOPS>
123.8

> <s_m_source_file>
ligprep_h3d.sdf

> <i_m_source_file_index>
1410

> <i_lp_mmshare_version>
55123

> <i_f3d_flags>
0

> <s_epik_input>
W09IXVtDSDJdW0NIMl1bTkhdQyg9TyljKG4xKVtjSF1jKC1uMm5bY0hdW2NIXWMyW0NIM10pYyhjMTMpYyhbQ0gzXSljKGMoW0NIM10pW2NIXTMpTjRbQ0gyXVtDSDJdW0NIXShbQ0gyXVtDSDJdNClONVtDSDJdW0NIMl1bQ0BASF0oW09IXSlDNT1P

> <s_epik_cmdline>
J2VwaWtfcHl0aG9uJywgJy1waHQnLCAnMC41JywgJy1waCcsICc3LjUnLCAnLXRuJywgJzgnLCAnLW1hJywgJzUwMCcsICctaW1hZScsICc8aW5maWxlLm1hZT4nLCAnLW9tYWUnLCAnPG91dGZpbGUubWFlPic=

> <r_lp_tautomer_probability>
1

> <r_epik_Ionization_Penalty>
0.000200459

> <r_epik_Ionization_Penalty_Charging>
0

> <r_epik_Ionization_Penalty_Neutral>
0.000200459

> <r_epik_State_Penalty>
-0

> <r_epik_Charging_Adjusted_Penalty>
0

> <i_epik_Tot_Q>
0

> <i_epik_Tot_abs_Q>
0

> <s_lp_Force_Field>
S-OPLS

> <r_lp_Energy>
62.0847

> <b_lp_Chiralities_Consistent>
1

> <s_lp_Variant>
ligprep_h3d.sdf:1410-1

> <ROCS_ShapeQuery>
_7L13

> <ROCS_TanimotoCombo>
0.749 

> <ROCS_ShapeTanimoto>
0.607 

> <ROCS_ColorTanimoto>
0.142 

> <ROCS_RefTversky>
0.766 

> <ROCS_RefColorTversky>
0.309 

> <ROCS_RefTverskyCombo>
1.075 

> <ROCS_FitTversky>
0.745 

> <ROCS_FitColorTversky>
0.208 

> <ROCS_FitTverskyCombo>
0.953 

> <ROCS_ColorScore>
-2.860

> <ROCS_Overlap>
1274.450

> <ROCS_Rank>
605                 

$$$$
ligprep_h3d.sdf:6093_1613
  -OEChem-08212117123D

 66 70  0     0  0  0  0  0  0999 V2000
  -19.8383   -4.9246  -35.1621 C   0  0  0  0  0  0  0  0  0  0  0  0
  -21.1676   -6.8066  -34.4355 C   0  0  0  0  0  0  0  0  0  0  0  0
  -18.9056   -5.7989  -35.7202 C   0  0  0  0  0  0  0  0  0  0  0  0
  -20.2350   -7.6809  -34.9937 C   0  0  0  0  0  0  0  0  0  0  0  0
  -20.9693   -5.4285  -34.5197 C   0  0  0  0  0  0  0  0  0  0  0  0
  -19.1040   -7.1770  -35.6360 C   0  0  0  0  0  0  0  0  0  0  0  0
  -21.6291   -4.3793  -30.1388 C   0  0  0  0  0  0  0  0  0  0  0  0
  -22.8058   -4.7924  -29.5606 C   0  0  0  0  0  0  0  0  0  0  0  0
  -21.3845   -4.7440  -27.9632 C   0  0  0  0  0  0  0  0  0  0  0  0
  -18.6607   -4.0427  -28.0049 C   0  0  0  0  0  0  0  0  0  0  0  0
  -19.3704   -4.0001  -29.1437 C   0  0  0  0  0  0  0  0  0  0  0  0
  -20.6233   -4.7869  -26.7556 C   0  0  0  0  0  0  0  0  0  0  0  0
  -19.3125   -4.4527  -26.7591 C   0  0  0  0  0  0  0  0  0  0  0  0
  -21.3716   -4.0457  -31.5050 C   0  0  0  0  0  0  0  0  0  0  0  0
  -26.0435   -4.4448  -23.5177 C   0  0  0  0  0  0  0  0  0  0  0  0
  -24.9251   -4.3011  -22.4902 C   0  0  0  0  0  0  0  0  0  0  0  0
  -25.6191   -5.3244  -24.6896 C   0  0  0  0  0  0  0  0  0  0  0  0
  -18.3535   -5.7332  -24.7735 C   0  0  0  0  0  0  0  0  0  0  0  0
  -17.1930   -5.2753  -25.6046 C   0  0  0  0  0  0  0  0  0  0  0  0
  -23.6337   -3.7965  -23.1300 C   0  0  0  0  0  0  0  0  0  0  0  0
  -24.3287   -4.8217  -25.3330 C   0  0  0  0  0  0  0  0  0  0  0  0
  -18.4443   -4.4674  -25.5547 C   0  0  0  0  0  0  0  0  0  0  0  0
  -23.1986   -4.6841  -24.3039 C   0  0  0  0  0  0  0  0  0  0  0  0
  -24.1169   -5.0017  -30.1972 C   0  0  0  0  0  0  0  0  0  0  0  0
  -17.0620   -7.4469  -36.8247 C   0  0  0  0  0  0  0  0  0  0  0  0
  -21.9736   -4.4877  -33.9194 C   0  0  0  0  0  0  0  0  0  0  0  0
  -21.9358   -4.1296  -24.9604 C   0  0  0  0  0  0  0  0  0  0  0  0
  -22.6492   -5.0162  -28.2166 N   0  0  0  0  0  0  0  0  0  0  0  0
  -20.7158   -4.3476  -29.1164 N   0  0  0  0  0  0  0  0  0  0  0  0
  -22.1311   -4.6993  -32.4985 N   0  0  0  0  0  0  0  0  0  0  0  0
  -20.4848   -3.2136  -31.8211 O   0  0  0  0  0  0  0  0  0  0  0  0
  -18.1944   -8.0298  -36.1818 O   0  0  0  0  0  0  0  0  0  0  0  0
  -21.3121   -5.1725  -25.6858 O   0  0  0  0  0  0  0  0  0  0  0  0
  -19.6757   -3.8525  -35.2323 H   0  0  0  0  0  0  0  0  0  0  0  0
  -22.0460   -7.2082  -33.9368 H   0  0  0  0  0  0  0  0  0  0  0  0
  -18.0266   -5.4002  -36.2197 H   0  0  0  0  0  0  0  0  0  0  0  0
  -20.3954   -8.7532  -34.9251 H   0  0  0  0  0  0  0  0  0  0  0  0
  -17.6097   -3.7757  -28.0023 H   0  0  0  0  0  0  0  0  0  0  0  0
  -18.9339   -3.7034  -30.0897 H   0  0  0  0  0  0  0  0  0  0  0  0
  -26.9316   -4.8722  -23.0386 H   0  0  0  0  0  0  0  0  0  0  0  0
  -26.3259   -3.4525  -23.8902 H   0  0  0  0  0  0  0  0  0  0  0  0
  -25.2390   -3.6108  -21.6989 H   0  0  0  0  0  0  0  0  0  0  0  0
  -24.7407   -5.2714  -22.0127 H   0  0  0  0  0  0  0  0  0  0  0  0
  -25.4751   -6.3542  -24.3402 H   0  0  0  0  0  0  0  0  0  0  0  0
  -26.4189   -5.3505  -25.4384 H   0  0  0  0  0  0  0  0  0  0  0  0
  -18.8903   -6.6150  -25.1026 H   0  0  0  0  0  0  0  0  0  0  0  0
  -18.2699   -5.6397  -23.6972 H   0  0  0  0  0  0  0  0  0  0  0  0
  -16.3300   -4.8741  -25.0867 H   0  0  0  0  0  0  0  0  0  0  0  0
  -16.9518   -5.8503  -26.4907 H   0  0  0  0  0  0  0  0  0  0  0  0
  -23.7825   -2.7657  -23.4764 H   0  0  0  0  0  0  0  0  0  0  0  0
  -22.8425   -3.7648  -22.3713 H   0  0  0  0  0  0  0  0  0  0  0  0
  -24.0281   -5.5134  -26.1290 H   0  0  0  0  0  0  0  0  0  0  0  0
  -24.5188   -3.8519  -25.8107 H   0  0  0  0  0  0  0  0  0  0  0  0
  -18.4395   -3.5317  -25.0320 H   0  0  0  0  0  0  0  0  0  0  0  0
  -22.9645   -5.6834  -23.9130 H   0  0  0  0  0  0  0  0  0  0  0  0
  -24.2245   -6.0376  -30.5624 H   0  0  0  0  0  0  0  0  0  0  0  0
  -24.9540   -4.8056  -29.5033 H   0  0  0  0  0  0  0  0  0  0  0  0
  -24.2751   -4.3278  -31.0584 H   0  0  0  0  0  0  0  0  0  0  0  0
  -16.4170   -8.2376  -37.2159 H   0  0  0  0  0  0  0  0  0  0  0  0
  -16.5105   -6.8335  -36.1077 H   0  0  0  0  0  0  0  0  0  0  0  0
  -17.4059   -6.8188  -37.6499 H   0  0  0  0  0  0  0  0  0  0  0  0
  -21.6680   -3.4470  -34.0736 H   0  0  0  0  0  0  0  0  0  0  0  0
  -22.9560   -4.6108  -34.3872 H   0  0  0  0  0  0  0  0  0  0  0  0
  -21.2523   -3.7619  -24.1959 H   0  0  0  0  0  0  0  0  0  0  0  0
  -22.1972   -3.3210  -25.6420 H   0  0  0  0  0  0  0  0  0  0  0  0
  -22.7937   -5.4111  -32.2085 H   0  0  0  0  0  0  0  0  0  0  0  0
  1  3  1  0  0  0  0
  1  5  2  0  0  0  0
  2  4  2  0  0  0  0
  2  5  1  0  0  0  0
  3  6  2  0  0  0  0
  4  6  1  0  0  0  0
  5 26  1  0  0  0  0
  6 32  1  0  0  0  0
  7  8  2  0  0  0  0
  7 14  1  0  0  0  0
  7 29  1  0  0  0  0
  8 24  1  0  0  0  0
  8 28  1  0  0  0  0
  9 12  1  0  0  0  0
  9 28  2  0  0  0  0
  9 29  1  0  0  0  0
 10 11  2  0  0  0  0
 10 13  1  0  0  0  0
 11 29  1  0  0  0  0
 12 13  2  0  0  0  0
 12 33  1  0  0  0  0
 13 22  1  0  0  0  0
 14 30  1  0  0  0  0
 14 31  2  0  0  0  0
 15 16  1  0  0  0  0
 15 17  1  0  0  0  0
 16 20  1  0  0  0  0
 17 21  1  0  0  0  0
 18 19  1  0  0  0  0
 18 22  1  0  0  0  0
 19 22  1  0  0  0  0
 20 23  1  0  0  0  0
 21 23  1  0  0  0  0
 23 27  1  0  0  0  0
 25 32  1  0  0  0  0
 26 30  1  0  0  0  0
 27 33  1  0  0  0  0
  1 34  1  0  0  0  0
  2 35  1  0  0  0  0
  3 36  1  0  0  0  0
  4 37  1  0  0  0  0
 10 38  1  0  0  0  0
 11 39  1  0  0  0  0
 15 40  1  0  0  0  0
 15 41  1  0  0  0  0
 16 42  1  0  0  0  0
 16 43  1  0  0  0  0
 17 44  1  0  0  0  0
 17 45  1  0  0  0  0
 18 46  1  0  0  0  0
 18 47  1  0  0  0  0
 19 48  1  0  0  0  0
 19 49  1  0  0  0  0
 20 50  1  0  0  0  0
 20 51  1  0  0  0  0
 21 52  1  0  0  0  0
 21 53  1  0  0  0  0
 22 54  1  0  0  0  0
 23 55  1  0  0  0  0
 24 56  1  0  0  0  0
 24 57  1  0  0  0  0
 24 58  1  0  0  0  0
 25 59  1  0  0  0  0
 25 60  1  0  0  0  0
 25 61  1  0  0  0  0
 26 62  1  0  0  0  0
 26 63  1  0  0  0  0
 27 64  1  0  0  0  0
 27 65  1  0  0  0  0
 30 66  1  0  0  0  0
M  END
> <SMILES>
COc1ccc(cc1)CNC(=O)c1c(nc2c(c(ccn12)C1CC1)OCC1CCCCC1)C

> <FORMATTED_ID>
H3D-000539

> <MOLFORMULA>
C27H33N3O3

> <Exact Mass>
447.25

> <XLogP>
5.86

> <TPSA_NOPS>
64.9

> <s_m_source_file>
ligprep_h3d.sdf

> <i_m_source_file_index>
6093

> <i_lp_mmshare_version>
55123

> <i_f3d_flags>
0

> <s_epik_input>
W0NIM11PYzFbY0hdW2NIXWMoW2NIXVtjSF0xKVtDSDJdW05IXUMoPU8pYyhjKG4yKVtDSDNdKW4oYzIzKVtjSF1bY0hdYyhbQ0hdNFtDSDJdW0NIMl00KWMzT1tDSDJdW0NIXTVbQ0gyXVtDSDJdW0NIMl1bQ0gyXVtDSDJdNQ==

> <s_epik_cmdline>
J2VwaWtfcHl0aG9uJywgJy1waHQnLCAnMC41JywgJy1waCcsICc3LjUnLCAnLXRuJywgJzgnLCAnLW1hJywgJzUwMCcsICctaW1hZScsICc8aW5maWxlLm1hZT4nLCAnLW9tYWUnLCAnPG91dGZpbGUubWFlPic=

> <r_lp_tautomer_probability>
1

> <r_epik_Ionization_Penalty>
0.00669677

> <r_epik_Ionization_Penalty_Charging>
0.00669472

> <r_epik_Ionization_Penalty_Neutral>
2.05133e-06

> <r_epik_State_Penalty>
-0

> <r_epik_Charging_Adjusted_Penalty>
0.00669472

> <i_epik_Tot_Q>
0

> <i_epik_Tot_abs_Q>
0

> <s_lp_Force_Field>
S-OPLS

> <r_lp_Energy>
42.5695

> <b_lp_Chiralities_Consistent>
1

> <s_lp_Variant>
ligprep_h3d.sdf:6093-1

> <ROCS_ShapeQuery>
_7L13

> <ROCS_TanimotoCombo>
0.730 

> <ROCS_ShapeTanimoto>
0.668 

> <ROCS_ColorTanimoto>
0.062 

> <ROCS_RefTversky>
0.766 

> <ROCS_RefColorTversky>
0.117 

> <ROCS_RefTverskyCombo>
0.883 

> <ROCS_FitTversky>
0.839 

> <ROCS_FitColorTversky>
0.117 

> <ROCS_FitTverskyCombo>
0.956 

> <ROCS_ColorScore>
-1.054

> <ROCS_Overlap>
1266.275

> <ROCS_Rank>
606                 

$$$$
ligprep_h3d.sdf:856_1819
  -OEChem-08212117123D

 63 66  0     0  0  0  0  0  0999 V2000
  -16.8972   -6.0960  -26.5235 C   0  0  0  0  0  0  0  0  0  0  0  0
  -23.0592   -4.2176  -28.8206 C   0  0  0  0  0  0  0  0  0  0  0  0
  -20.7285   -4.4799  -25.3899 C   0  0  0  0  0  0  0  0  0  0  0  0
  -16.7260   -4.7032  -26.6357 C   0  0  0  0  0  0  0  0  0  0  0  0
  -20.9252   -4.6295  -27.7949 C   0  0  0  0  0  0  0  0  0  0  0  0
  -21.1624   -4.7703  -30.2064 C   0  0  0  0  0  0  0  0  0  0  0  0
  -22.5082   -4.4480  -30.0836 C   0  0  0  0  0  0  0  0  0  0  0  0
  -20.3708   -4.8613  -29.0651 C   0  0  0  0  0  0  0  0  0  0  0  0
  -22.2909   -4.3020  -27.6626 C   0  0  0  0  0  0  0  0  0  0  0  0
  -20.1513   -4.7144  -26.6296 C   0  0  0  0  0  0  0  0  0  0  0  0
  -22.0721   -4.1659  -25.3607 C   0  0  0  0  0  0  0  0  0  0  0  0
  -18.2589   -6.2744  -26.5070 C   0  0  0  0  0  0  0  0  0  0  0  0
  -20.0181   -3.9492  -32.3499 C   0  0  0  0  0  0  0  0  0  0  0  0
  -20.6031   -6.2667  -32.0306 C   0  0  0  0  0  0  0  0  0  0  0  0
  -19.5061   -4.2124  -33.5567 C   0  0  0  0  0  0  0  0  0  0  0  0
  -20.5934   -5.0111  -31.5475 C   0  0  0  0  0  0  0  0  0  0  0  0
  -20.0353   -6.5773  -33.3795 C   0  0  0  0  0  0  0  0  0  0  0  0
  -22.7375   -3.9087  -24.0951 C   0  0  0  0  0  0  0  0  0  0  0  0
  -23.4035   -4.3371  -31.2767 C   0  0  0  0  0  0  0  0  0  0  0  0
  -18.9253   -5.2136  -29.2772 C   0  0  0  0  0  0  0  0  0  0  0  0
  -19.0643   -7.5073  -26.4069 C   0  0  0  0  0  0  0  0  0  0  0  0
  -20.4638   -6.1273  -38.7216 C   0  0  0  0  0  0  0  0  0  0  0  0
  -18.9232   -5.6791  -35.4056 C   0  0  0  0  0  0  0  0  0  0  0  0
  -24.9032   -4.0104  -22.8339 C   0  0  0  0  0  0  0  0  0  0  0  0
  -20.0322   -5.8358  -36.4300 C   0  0  0  0  0  0  0  0  0  0  0  0
  -26.0118   -5.0385  -22.7477 C   0  0  0  0  0  0  0  0  0  0  0  0
  -17.8863   -4.0436  -26.6870 N   0  0  0  0  0  0  0  0  0  0  0  0
  -22.8538   -4.0738  -26.4609 N   0  0  0  0  0  0  0  0  0  0  0  0
  -18.7996   -5.0262  -26.6068 N   0  0  0  0  0  0  0  0  0  0  0  0
  -19.5037   -5.4912  -34.0814 N   0  0  0  0  0  0  0  0  0  0  0  0
  -24.0985   -4.2287  -24.0145 N   0  0  0  0  0  0  0  0  0  0  0  0
  -20.0676   -7.7395  -33.7813 O   0  0  0  0  0  0  0  0  0  0  0  0
  -22.1135   -3.4063  -23.1427 O   0  0  0  0  0  0  0  0  0  0  0  0
  -19.4620   -5.9831  -37.7242 O   0  0  0  0  0  0  0  0  0  0  0  0
  -25.4841   -6.2882  -22.7412 F   0  0  0  0  0  0  0  0  0  0  0  0
  -26.7849   -4.9527  -23.8604 F   0  0  0  0  0  0  0  0  0  0  0  0
  -16.1378   -6.8619  -26.4635 H   0  0  0  0  0  0  0  0  0  0  0  0
  -24.1159   -3.9658  -28.7394 H   0  0  0  0  0  0  0  0  0  0  0  0
  -20.1510   -4.5393  -24.4718 H   0  0  0  0  0  0  0  0  0  0  0  0
  -15.8040   -4.1416  -26.6823 H   0  0  0  0  0  0  0  0  0  0  0  0
  -20.0099   -2.9384  -31.9544 H   0  0  0  0  0  0  0  0  0  0  0  0
  -21.0191   -7.1025  -31.4739 H   0  0  0  0  0  0  0  0  0  0  0  0
  -19.0723   -3.4298  -34.1691 H   0  0  0  0  0  0  0  0  0  0  0  0
  -23.3978   -3.3107  -31.6589 H   0  0  0  0  0  0  0  0  0  0  0  0
  -23.0789   -5.0121  -32.0771 H   0  0  0  0  0  0  0  0  0  0  0  0
  -24.4340   -4.6121  -31.0230 H   0  0  0  0  0  0  0  0  0  0  0  0
  -18.8004   -6.2990  -29.2483 H   0  0  0  0  0  0  0  0  0  0  0  0
  -18.5732   -4.8391  -30.2425 H   0  0  0  0  0  0  0  0  0  0  0  0
  -18.2991   -4.7611  -28.5029 H   0  0  0  0  0  0  0  0  0  0  0  0
  -19.2795   -7.7569  -25.3550 H   0  0  0  0  0  0  0  0  0  0  0  0
  -20.0295   -7.4150  -26.9336 H   0  0  0  0  0  0  0  0  0  0  0  0
  -18.5522   -8.3739  -26.8591 H   0  0  0  0  0  0  0  0  0  0  0  0
  -19.9912   -6.2378  -39.7006 H   0  0  0  0  0  0  0  0  0  0  0  0
  -21.1139   -5.2487  -38.7161 H   0  0  0  0  0  0  0  0  0  0  0  0
  -21.0571   -7.0184  -38.5033 H   0  0  0  0  0  0  0  0  0  0  0  0
  -18.2819   -6.5657  -35.3763 H   0  0  0  0  0  0  0  0  0  0  0  0
  -18.3116   -4.8020  -35.6375 H   0  0  0  0  0  0  0  0  0  0  0  0
  -25.3371   -3.0062  -22.8757 H   0  0  0  0  0  0  0  0  0  0  0  0
  -24.2769   -4.0601  -21.9373 H   0  0  0  0  0  0  0  0  0  0  0  0
  -20.6634   -4.9417  -36.4386 H   0  0  0  0  0  0  0  0  0  0  0  0
  -20.6553   -6.7107  -36.2180 H   0  0  0  0  0  0  0  0  0  0  0  0
  -26.6500   -4.9143  -21.8679 H   0  0  0  0  0  0  0  0  0  0  0  0
  -24.5750   -4.5774  -24.8398 H   0  0  0  0  0  0  0  0  0  0  0  0
  1  4  1  0  0  0  0
  1 12  2  0  0  0  0
  2  7  1  0  0  0  0
  2  9  2  0  0  0  0
  3 10  2  0  0  0  0
  3 11  1  0  0  0  0
  4 27  2  0  0  0  0
  5  8  2  0  0  0  0
  5  9  1  0  0  0  0
  5 10  1  0  0  0  0
  6  7  2  0  0  0  0
  6  8  1  0  0  0  0
  6 16  1  0  0  0  0
  7 19  1  0  0  0  0
  8 20  1  0  0  0  0
  9 28  1  0  0  0  0
 10 29  1  0  0  0  0
 11 18  1  0  0  0  0
 11 28  2  0  0  0  0
 12 21  1  0  0  0  0
 12 29  1  0  0  0  0
 13 15  2  0  0  0  0
 13 16  1  0  0  0  0
 14 16  2  0  0  0  0
 14 17  1  0  0  0  0
 15 30  1  0  0  0  0
 17 30  1  0  0  0  0
 17 32  2  0  0  0  0
 18 31  1  0  0  0  0
 18 33  2  0  0  0  0
 22 34  1  0  0  0  0
 23 25  1  0  0  0  0
 23 30  1  0  0  0  0
 24 26  1  0  0  0  0
 24 31  1  0  0  0  0
 25 34  1  0  0  0  0
 26 35  1  0  0  0  0
 26 36  1  0  0  0  0
 27 29  1  0  0  0  0
  1 37  1  0  0  0  0
  2 38  1  0  0  0  0
  3 39  1  0  0  0  0
  4 40  1  0  0  0  0
 13 41  1  0  0  0  0
 14 42  1  0  0  0  0
 15 43  1  0  0  0  0
 19 44  1  0  0  0  0
 19 45  1  0  0  0  0
 19 46  1  0  0  0  0
 20 47  1  0  0  0  0
 20 48  1  0  0  0  0
 20 49  1  0  0  0  0
 21 50  1  0  0  0  0
 21 51  1  0  0  0  0
 21 52  1  0  0  0  0
 22 53  1  0  0  0  0
 22 54  1  0  0  0  0
 22 55  1  0  0  0  0
 23 56  1  0  0  0  0
 23 57  1  0  0  0  0
 24 58  1  0  0  0  0
 24 59  1  0  0  0  0
 25 60  1  0  0  0  0
 25 61  1  0  0  0  0
 26 62  1  0  0  0  0
 31 63  1  0  0  0  0
M  END
> <SMILES>
COCCN1C=CC(=CC1=O)c1c(cc2nc(cc(c2c1C)-n1nccc1C)C(=O)NCC(F)F)C

> <FORMATTED_ID>
H3D-005678

> <MOLFORMULA>
C26H27F2N5O3

> <Exact Mass>
495.21

> <XLogP>
3.21

> <TPSA_NOPS>
89.3

> <s_m_source_file>
ligprep_h3d.sdf

> <i_m_source_file_index>
856

> <i_lp_mmshare_version>
55123

> <i_f3d_flags>
0

> <s_epik_input>
W0NIM11PW0NIMl1bQ0gyXW4xW2NIXVtjSF1jKFtjSF1jMT1PKS1jKGMoW2NIXTIpW0NIM10pYyhbQ0gzXSljKGMyMyljKFtjSF1jKG4zKUMoPU8pW05IXVtDSDJdW0NIXShGKUYpLW40bltjSF1bY0hdYzRbQ0gzXQ==

> <s_epik_cmdline>
J2VwaWtfcHl0aG9uJywgJy1waHQnLCAnMC41JywgJy1waCcsICc3LjUnLCAnLXRuJywgJzgnLCAnLW1hJywgJzUwMCcsICctaW1hZScsICc8aW5maWxlLm1hZT4nLCAnLW9tYWUnLCAnPG91dGZpbGUubWFlPic=

> <r_lp_tautomer_probability>
1

> <r_epik_Ionization_Penalty>
4.24023e-05

> <r_epik_Ionization_Penalty_Charging>
2.32377e-07

> <r_epik_Ionization_Penalty_Neutral>
4.217e-05

> <r_epik_State_Penalty>
-0

> <r_epik_Charging_Adjusted_Penalty>
2.32377e-07

> <i_epik_Tot_Q>
0

> <i_epik_Tot_abs_Q>
0

> <s_lp_Force_Field>
S-OPLS

> <r_lp_Energy>
70.709

> <b_lp_Chiralities_Consistent>
1

> <s_lp_Variant>
ligprep_h3d.sdf:856-1

> <ROCS_ShapeQuery>
_7L13

> <ROCS_TanimotoCombo>
0.738 

> <ROCS_ShapeTanimoto>
0.619 

> <ROCS_ColorTanimoto>
0.119 

> <ROCS_RefTversky>
0.766 

> <ROCS_RefColorTversky>
0.224 

> <ROCS_RefTverskyCombo>
0.990 

> <ROCS_FitTversky>
0.763 

> <ROCS_FitColorTversky>
0.203 

> <ROCS_FitTverskyCombo>
0.966 

> <ROCS_ColorScore>
-2.024

> <ROCS_Overlap>
1272.647

> <ROCS_Rank>
607                 

$$$$
ligprep_h3d.sdf:1113_32
  -OEChem-08212117123D

 60 65  0     1  0  0  0  0  0999 V2000
  -20.9596   -5.1381  -29.5074 C   0  0  0  0  0  0  0  0  0  0  0  0
  -21.7399   -4.3857  -30.3876 C   0  0  0  0  0  0  0  0  0  0  0  0
  -21.0741   -4.8964  -28.1164 C   0  0  0  0  0  0  0  0  0  0  0  0
  -21.9788   -3.9504  -27.5816 C   0  0  0  0  0  0  0  0  0  0  0  0
  -22.5933   -3.4408  -29.8624 C   0  0  0  0  0  0  0  0  0  0  0  0
  -22.7423   -3.1888  -28.4984 C   0  0  0  0  0  0  0  0  0  0  0  0
  -21.9372   -4.2807  -31.7771 C   0  0  0  0  0  0  0  0  0  0  0  0
  -19.2333   -6.0947  -25.0047 C   0  0  0  0  0  0  0  0  0  0  0  0
  -18.9288   -3.8277  -26.1575 C   0  0  0  0  0  0  0  0  0  0  0  0
  -17.0845   -5.3918  -25.5983 C   0  0  0  0  0  0  0  0  0  0  0  0
  -20.2022   -5.7122  -27.2004 C   0  0  0  0  0  0  0  0  0  0  0  0
  -20.0183   -6.8628  -33.5748 C   0  0  0  0  0  0  0  0  0  0  0  0
  -20.2710   -6.0822  -32.2880 C   0  0  0  0  0  0  0  0  0  0  0  0
  -23.0526   -2.8100  -25.6529 C   0  0  0  0  0  0  0  0  0  0  0  0
  -21.4219   -5.0002  -34.1250 C   0  0  0  0  0  0  0  0  0  0  0  0
  -21.2070   -4.4791  -25.2319 C   0  0  2  0  0  0  0  0  0  0  0  0
  -23.4234   -3.1179  -24.2000 C   0  0  1  0  0  0  0  0  0  0  0  0
  -21.0479   -3.5364  -24.0016 C   0  0  2  0  0  0  0  0  0  0  0  0
  -19.8730   -4.9866  -25.8729 C   0  0  1  0  0  0  0  0  0  0  0  0
  -20.2651   -5.8412  -34.6847 C   0  0  1  0  0  0  0  0  0  0  0  0
  -24.4037   -4.2828  -24.0762 C   0  0  0  0  0  0  0  0  0  0  0  0
  -20.0964   -4.0044  -22.9072 C   0  0  0  0  0  0  0  0  0  0  0  0
  -19.0244   -5.0010  -34.9843 C   0  0  0  0  0  0  0  0  0  0  0  0
  -22.8380   -3.3450  -32.0917 N   0  0  0  0  0  0  0  0  0  0  0  0
  -17.9258   -6.3199  -25.1463 N   0  5  0  0  0  0  0  0  0  0  0  0
  -17.6007   -4.1723  -26.0253 N   0  0  0  0  0  0  0  0  0  0  0  0
  -22.0904   -3.7751  -26.2004 N   0  0  3  0  0  0  0  0  0  0  0  0
  -21.2523   -5.0727  -32.6747 N   0  0  0  0  0  0  0  0  0  0  0  0
  -19.9504   -6.8150  -24.3073 O   0  0  0  0  0  0  0  0  0  0  0  0
  -19.2902   -2.7127  -26.5255 O   0  0  0  0  0  0  0  0  0  0  0  0
  -15.8638   -5.5655  -25.6513 O   0  0  0  0  0  0  0  0  0  0  0  0
  -23.2507   -2.8128  -30.8757 O   0  0  0  0  0  0  0  0  0  0  0  0
  -22.3114   -3.3671  -23.3466 O   0  0  0  0  0  0  0  0  0  0  0  0
  -20.6633   -6.5175  -35.8687 O   0  0  0  0  0  0  0  0  0  0  0  0
  -23.5254   -2.1666  -28.1329 F   0  0  0  0  0  0  0  0  0  0  0  0
  -20.2710   -5.8899  -29.8829 H   0  0  0  0  0  0  0  0  0  0  0  0
  -20.7235   -6.6598  -27.0049 H   0  0  0  0  0  0  0  0  0  0  0  0
  -19.2696   -5.9675  -27.7223 H   0  0  0  0  0  0  0  0  0  0  0  0
  -18.9775   -7.2180  -33.5920 H   0  0  0  0  0  0  0  0  0  0  0  0
  -20.6845   -7.7330  -33.6435 H   0  0  0  0  0  0  0  0  0  0  0  0
  -20.6948   -6.7316  -31.5122 H   0  0  0  0  0  0  0  0  0  0  0  0
  -19.3458   -5.6353  -31.9062 H   0  0  0  0  0  0  0  0  0  0  0  0
  -23.9634   -2.8595  -26.2861 H   0  0  0  0  0  0  0  0  0  0  0  0
  -22.7476   -1.7522  -25.7035 H   0  0  0  0  0  0  0  0  0  0  0  0
  -21.3476   -3.9503  -34.4406 H   0  0  0  0  0  0  0  0  0  0  0  0
  -22.4013   -5.3961  -34.4268 H   0  0  0  0  0  0  0  0  0  0  0  0
  -21.7877   -5.3544  -24.9035 H   0  0  0  0  0  0  0  0  0  0  0  0
  -23.9753   -2.2101  -23.7708 H   0  0  0  0  0  0  0  0  0  0  0  0
  -20.7055   -2.5341  -24.3198 H   0  0  0  0  0  0  0  0  0  0  0  0
  -23.9510   -5.1943  -24.4666 H   0  0  0  0  0  0  0  0  0  0  0  0
  -25.3109   -4.0685  -24.6414 H   0  0  0  0  0  0  0  0  0  0  0  0
  -24.6673   -4.4389  -23.0300 H   0  0  0  0  0  0  0  0  0  0  0  0
  -20.3902   -4.9935  -22.5557 H   0  0  0  0  0  0  0  0  0  0  0  0
  -20.1221   -3.3088  -22.0684 H   0  0  0  0  0  0  0  0  0  0  0  0
  -19.0787   -4.0544  -23.2945 H   0  0  0  0  0  0  0  0  0  0  0  0
  -19.2385   -4.2852  -35.7793 H   0  0  0  0  0  0  0  0  0  0  0  0
  -18.2029   -5.6445  -35.3025 H   0  0  0  0  0  0  0  0  0  0  0  0
  -18.7171   -4.4537  -34.0919 H   0  0  0  0  0  0  0  0  0  0  0  0
  -16.9221   -3.4671  -26.2980 H   0  0  0  0  0  0  0  0  0  0  0  0
  -19.9358   -7.1140  -36.1008 H   0  0  0  0  0  0  0  0  0  0  0  0
  1  2  2  0  0  0  0
  1  3  1  0  0  0  0
  2  5  1  0  0  0  0
  2  7  1  0  0  0  0
  3  4  2  0  0  0  0
  3 11  1  0  0  0  0
  4  6  1  0  0  0  0
  4 27  1  0  0  0  0
  5  6  2  0  0  0  0
  5 32  1  0  0  0  0
  6 35  1  0  0  0  0
  7 24  2  0  0  0  0
  7 28  1  0  0  0  0
  8 19  1  0  0  0  0
  8 25  1  0  0  0  0
  8 29  2  0  0  0  0
  9 19  1  0  0  0  0
  9 26  1  0  0  0  0
  9 30  2  0  0  0  0
 10 25  1  0  0  0  0
 10 26  1  0  0  0  0
 10 31  2  0  0  0  0
 11 19  1  0  0  0  0
 12 13  1  0  0  0  0
 12 20  1  0  0  0  0
 13 28  1  0  0  0  0
 14 17  1  0  0  0  0
 14 27  1  0  0  0  0
 15 20  1  0  0  0  0
 15 28  1  0  0  0  0
 16 18  1  0  0  0  0
 16 19  1  0  0  0  0
 16 27  1  0  0  0  0
 17 21  1  0  0  0  0
 17 33  1  0  0  0  0
 18 22  1  0  0  0  0
 18 33  1  0  0  0  0
 20 23  1  0  0  0  0
 20 34  1  0  0  0  0
 24 32  1  0  0  0  0
  1 36  1  0  0  0  0
 11 37  1  0  0  0  0
 11 38  1  0  0  0  0
 12 39  1  0  0  0  0
 12 40  1  0  0  0  0
 13 41  1  0  0  0  0
 13 42  1  0  0  0  0
 14 43  1  0  0  0  0
 14 44  1  0  0  0  0
 15 45  1  0  0  0  0
 15 46  1  0  0  0  0
 16 47  1  0  0  0  0
 17 48  1  0  0  0  0
 18 49  1  0  0  0  0
 21 50  1  0  0  0  0
 21 51  1  0  0  0  0
 21 52  1  0  0  0  0
 22 53  1  0  0  0  0
 22 54  1  0  0  0  0
 22 55  1  0  0  0  0
 23 56  1  0  0  0  0
 23 57  1  0  0  0  0
 23 58  1  0  0  0  0
 26 59  1  0  0  0  0
 34 60  1  0  0  0  0
M  CHG  1  25  -1
M  END
> <SMILES>
CC1CN2C(C(C)O1)C1(Cc3cc4c(noc4c(c32)F)N2CCC(C)(O)C2)C(=O)NC(=O)NC1=O

> <FORMATTED_ID>
H3D-006974

> <MOLFORMULA>
C23H26FN5O6

> <Exact Mass>
487.19

> <XLogP>
0.24

> <TPSA_NOPS>
137.5

> <s_m_source_file>
ligprep_h3d.sdf

> <i_m_source_file_index>
1113

> <i_lp_mmshare_version>
55123

> <i_f3d_flags>
0

> <s_epik_input>
Tz1DMVtOSF1DKD1PKVtOSF1DKD1PKUMxMltDQEBIXTNOKFtDSDJdW0NAQEhdKFtDSDNdKU9bQ0BIXTNbQ0gzXSljNGMoW0NIMl0yKVtjSF1jNWMoYzRGKW9uYzVOKFtDSDJdNilbQ0gyXVtDSDJdW0NAQF02KFtDSDNdKVtPSF0=

> <s_epik_cmdline>
J2VwaWtfcHl0aG9uJywgJy1waHQnLCAnMC41JywgJy1waCcsICc3LjUnLCAnLXRuJywgJzgnLCAnLW1hJywgJzUwMCcsICctaW1hZScsICc8aW5maWxlLm1hZT4nLCAnLW9tYWUnLCAnPG91dGZpbGUubWFlPic=

> <r_lp_tautomer_probability>
1

> <r_epik_Ionization_Penalty>
0.455418

> <r_epik_Ionization_Penalty_Charging>
0.455373

> <r_epik_Ionization_Penalty_Neutral>
4.46867e-05

> <r_epik_State_Penalty>
0.458483

> <r_epik_Charging_Adjusted_Penalty>
0.913857

> <i_epik_Tot_Q>
-1

> <i_epik_Tot_abs_Q>
1

> <s_lp_Force_Field>
S-OPLS

> <r_lp_Energy>
44.4601

> <b_lp_Chiralities_Consistent>
1

> <s_lp_Variant>
ligprep_h3d.sdf:1113-2

> <ROCS_ShapeQuery>
_7L13

> <ROCS_TanimotoCombo>
0.744 

> <ROCS_ShapeTanimoto>
0.620 

> <ROCS_ColorTanimoto>
0.124 

> <ROCS_RefTversky>
0.766 

> <ROCS_RefColorTversky>
0.296 

> <ROCS_RefTverskyCombo>
1.062 

> <ROCS_FitTversky>
0.765 

> <ROCS_FitColorTversky>
0.176 

> <ROCS_FitTverskyCombo>
0.941 

> <ROCS_ColorScore>
-2.765

> <ROCS_Overlap>
1272.227

> <ROCS_Rank>
608                 

$$$$
ligprep_h3d.sdf:1231_1490
  -OEChem-08212117123D

 71 75  0     1  0  0  0  0  0999 V2000
  -20.6785   -4.1102  -32.3618 C   0  0  0  0  0  0  0  0  0  0  0  0
  -21.8171   -6.2290  -32.1345 C   0  0  0  0  0  0  0  0  0  0  0  0
  -20.3439   -4.4311  -33.6773 C   0  0  0  0  0  0  0  0  0  0  0  0
  -21.4825   -6.5499  -33.4501 C   0  0  0  0  0  0  0  0  0  0  0  0
  -17.1023   -6.1410  -27.1148 C   0  0  0  0  0  0  0  0  0  0  0  0
  -23.2980   -3.6810  -28.6440 C   0  0  0  0  0  0  0  0  0  0  0  0
  -20.8077   -4.6782  -25.4700 C   0  0  0  0  0  0  0  0  0  0  0  0
  -17.8910   -7.2982  -26.9709 C   0  0  0  0  0  0  0  0  0  0  0  0
  -21.2672   -4.6862  -27.8436 C   0  0  0  0  0  0  0  0  0  0  0  0
  -21.4151   -5.0092  -31.5903 C   0  0  0  0  0  0  0  0  0  0  0  0
  -21.7636   -4.6748  -30.2195 C   0  0  0  0  0  0  0  0  0  0  0  0
  -20.7459   -5.6509  -34.2215 C   0  0  0  0  0  0  0  0  0  0  0  0
  -22.9537   -4.0072  -29.9582 C   0  0  0  0  0  0  0  0  0  0  0  0
  -20.9206   -5.0145  -29.1652 C   0  0  0  0  0  0  0  0  0  0  0  0
  -22.4740   -4.0086  -27.5708 C   0  0  0  0  0  0  0  0  0  0  0  0
  -20.4372   -5.0161  -26.7636 C   0  0  0  0  0  0  0  0  0  0  0  0
  -22.0069   -4.0159  -25.3021 C   0  0  0  0  0  0  0  0  0  0  0  0
  -18.0001   -5.1035  -27.0518 C   0  0  0  0  0  0  0  0  0  0  0  0
  -19.2277   -9.0278  -35.8449 C   0  0  0  0  0  0  0  0  0  0  0  0
  -22.4548   -3.6344  -23.9738 C   0  0  0  0  0  0  0  0  0  0  0  0
  -18.7636   -7.2074  -37.1320 C   0  0  0  0  0  0  0  0  0  0  0  0
  -19.0533   -6.7216  -35.7251 C   0  0  1  0  0  0  0  0  0  0  0  0
  -23.8950   -3.6176  -31.0534 C   0  0  0  0  0  0  0  0  0  0  0  0
  -19.6513   -5.7350  -29.5246 C   0  0  0  0  0  0  0  0  0  0  0  0
  -17.7893   -3.6451  -27.1392 C   0  0  0  0  0  0  0  0  0  0  0  0
  -25.8434   -6.8443  -21.0531 C   0  0  0  0  0  0  0  0  0  0  0  0
  -20.3879   -5.9942  -35.6279 C   0  0  0  0  0  0  0  0  0  0  0  0
  -24.4375   -3.1951  -22.5017 C   0  0  0  0  0  0  0  0  0  0  0  0
  -24.6638   -4.3846  -21.5883 C   0  0  0  0  0  0  0  0  0  0  0  0
  -19.1899   -7.0222  -26.8271 N   0  0  0  0  0  0  0  0  0  0  0  0
  -22.8362   -3.6793  -26.3165 N   0  0  0  0  0  0  0  0  0  0  0  0
  -19.2243   -5.6798  -26.8802 N   0  0  0  0  0  0  0  0  0  0  0  0
  -19.0858   -7.9521  -34.9967 N   0  0  0  0  0  0  0  0  0  0  0  0
  -23.8376   -3.5796  -23.7592 N   0  0  0  0  0  0  0  0  0  0  0  0
  -19.3867  -10.1977  -35.5265 O   0  0  0  0  0  0  0  0  0  0  0  0
  -21.6307   -3.3522  -23.0849 O   0  0  0  0  0  0  0  0  0  0  0  0
  -27.0892   -4.9631  -22.3727 O   0  0  0  0  0  0  0  0  0  0  0  0
  -25.1414   -6.1358  -23.4692 O   0  0  0  0  0  0  0  0  0  0  0  0
  -19.1721   -8.5871  -37.1433 O   0  0  0  0  0  0  0  0  0  0  0  0
  -25.7709   -5.5681  -22.2892 S   0  0  0  0  0  0  0  0  0  0  0  0
  -20.3573   -3.1557  -31.9517 H   0  0  0  0  0  0  0  0  0  0  0  0
  -22.3922   -6.9399  -31.5461 H   0  0  0  0  0  0  0  0  0  0  0  0
  -19.7689   -3.7252  -34.2706 H   0  0  0  0  0  0  0  0  0  0  0  0
  -21.8003   -7.5023  -33.8662 H   0  0  0  0  0  0  0  0  0  0  0  0
  -16.0323   -6.0713  -27.2455 H   0  0  0  0  0  0  0  0  0  0  0  0
  -24.2343   -3.1575  -28.4539 H   0  0  0  0  0  0  0  0  0  0  0  0
  -20.1829   -4.9220  -24.6152 H   0  0  0  0  0  0  0  0  0  0  0  0
  -17.5733   -8.3309  -26.9647 H   0  0  0  0  0  0  0  0  0  0  0  0
  -19.3324   -6.6775  -37.9043 H   0  0  0  0  0  0  0  0  0  0  0  0
  -17.6968   -7.1515  -37.3703 H   0  0  0  0  0  0  0  0  0  0  0  0
  -18.2531   -6.1232  -35.3352 H   0  0  0  0  0  0  0  0  0  0  0  0
  -23.6472   -2.6180  -31.4264 H   0  0  0  0  0  0  0  0  0  0  0  0
  -23.8440   -4.3267  -31.8877 H   0  0  0  0  0  0  0  0  0  0  0  0
  -24.9322   -3.6133  -30.6985 H   0  0  0  0  0  0  0  0  0  0  0  0
  -19.8232   -6.8142  -29.5162 H   0  0  0  0  0  0  0  0  0  0  0  0
  -19.3047   -5.4360  -30.5177 H   0  0  0  0  0  0  0  0  0  0  0  0
  -18.8556   -5.4942  -28.8141 H   0  0  0  0  0  0  0  0  0  0  0  0
  -17.8545   -3.2962  -28.1828 H   0  0  0  0  0  0  0  0  0  0  0  0
  -18.5346   -3.0833  -26.5508 H   0  0  0  0  0  0  0  0  0  0  0  0
  -16.8025   -3.3455  -26.7466 H   0  0  0  0  0  0  0  0  0  0  0  0
  -26.5146   -7.6285  -21.4067 H   0  0  0  0  0  0  0  0  0  0  0  0
  -24.8370   -7.2395  -20.9068 H   0  0  0  0  0  0  0  0  0  0  0  0
  -26.2207   -6.4064  -20.1278 H   0  0  0  0  0  0  0  0  0  0  0  0
  -21.1727   -6.6201  -36.0822 H   0  0  0  0  0  0  0  0  0  0  0  0
  -20.3473   -5.0835  -36.2471 H   0  0  0  0  0  0  0  0  0  0  0  0
  -25.3752   -2.6779  -22.7276 H   0  0  0  0  0  0  0  0  0  0  0  0
  -23.7554   -2.4820  -22.0289 H   0  0  0  0  0  0  0  0  0  0  0  0
  -25.1180   -4.0609  -20.6470 H   0  0  0  0  0  0  0  0  0  0  0  0
  -23.7302   -4.9108  -21.3674 H   0  0  0  0  0  0  0  0  0  0  0  0
  -19.0135   -8.0226  -33.9843 H   0  0  0  0  0  0  0  0  0  0  0  0
  -24.4666   -3.7580  -24.5352 H   0  0  0  0  0  0  0  0  0  0  0  0
  1  3  1  0  0  0  0
  1 10  2  0  0  0  0
  2  4  2  0  0  0  0
  2 10  1  0  0  0  0
  3 12  2  0  0  0  0
  4 12  1  0  0  0  0
  5  8  1  0  0  0  0
  5 18  2  0  0  0  0
  6 13  2  0  0  0  0
  6 15  1  0  0  0  0
  7 16  1  0  0  0  0
  7 17  2  0  0  0  0
  8 30  2  0  0  0  0
  9 14  1  0  0  0  0
  9 15  1  0  0  0  0
  9 16  2  0  0  0  0
 10 11  1  0  0  0  0
 11 13  1  0  0  0  0
 11 14  2  0  0  0  0
 12 27  1  0  0  0  0
 13 23  1  0  0  0  0
 14 24  1  0  0  0  0
 15 31  2  0  0  0  0
 16 32  1  0  0  0  0
 17 20  1  0  0  0  0
 17 31  1  0  0  0  0
 18 25  1  0  0  0  0
 18 32  1  0  0  0  0
 19 33  1  0  0  0  0
 19 35  2  0  0  0  0
 19 39  1  0  0  0  0
 20 34  1  0  0  0  0
 20 36  2  0  0  0  0
 21 22  1  0  0  0  0
 21 39  1  0  0  0  0
 22 27  1  0  0  0  0
 22 33  1  0  0  0  0
 26 40  1  0  0  0  0
 28 29  1  0  0  0  0
 28 34  1  0  0  0  0
 29 40  1  0  0  0  0
 30 32  1  0  0  0  0
 37 40  2  0  0  0  0
 38 40  2  0  0  0  0
  1 41  1  0  0  0  0
  2 42  1  0  0  0  0
  3 43  1  0  0  0  0
  4 44  1  0  0  0  0
  5 45  1  0  0  0  0
  6 46  1  0  0  0  0
  7 47  1  0  0  0  0
  8 48  1  0  0  0  0
 21 49  1  0  0  0  0
 21 50  1  0  0  0  0
 22 51  1  0  0  0  0
 23 52  1  0  0  0  0
 23 53  1  0  0  0  0
 23 54  1  0  0  0  0
 24 55  1  0  0  0  0
 24 56  1  0  0  0  0
 24 57  1  0  0  0  0
 25 58  1  0  0  0  0
 25 59  1  0  0  0  0
 25 60  1  0  0  0  0
 26 61  1  0  0  0  0
 26 62  1  0  0  0  0
 26 63  1  0  0  0  0
 27 64  1  0  0  0  0
 27 65  1  0  0  0  0
 28 66  1  0  0  0  0
 28 67  1  0  0  0  0
 29 68  1  0  0  0  0
 29 69  1  0  0  0  0
 33 70  1  0  0  0  0
 34 71  1  0  0  0  0
M  END
> <SMILES>
Cc1cc2nc(cc(c2c(c1-c1ccc(cc1)C[C@@H]1COC(=O)N1)C)-n1nccc1C)C(=O)NCCS(=O)(=O)C

> <FORMATTED_ID>
H3D-008422

> <MOLFORMULA>
C29H31N5O5S

> <Exact Mass>
561.2

> <XLogP>
2.84

> <TPSA_NOPS>
140.7

> <s_m_source_file>
ligprep_h3d.sdf

> <i_m_source_file_index>
1231

> <i_lp_mmshare_version>
55123

> <i_f3d_flags>
0

> <s_epik_input>
Tz1DKFtOSF0xKU9bQ0gyXVtDQEhdMVtDSDJdYyhbY0hdW2NIXTIpW2NIXVtjSF1jMi1jKGMoW0NIM10pW2NIXTMpYyhbQ0gzXSljKGMzNCljKC1uNW5bY0hdW2NIXWM1W0NIM10pW2NIXWMobjQpQyg9TylbTkhdW0NIMl1bQ0gyXVMoPU8pKD1PKVtDSDNd

> <s_epik_cmdline>
J2VwaWtfcHl0aG9uJywgJy1waHQnLCAnMC41JywgJy1waCcsICc3LjUnLCAnLXRuJywgJzgnLCAnLW1hJywgJzUwMCcsICctaW1hZScsICc8aW5maWxlLm1hZT4nLCAnLW9tYWUnLCAnPG91dGZpbGUubWFlPic=

> <r_lp_tautomer_probability>
1

> <r_epik_Ionization_Penalty>
2.32844e-05

> <r_epik_Ionization_Penalty_Charging>
0

> <r_epik_Ionization_Penalty_Neutral>
2.32844e-05

> <r_epik_State_Penalty>
-0

> <r_epik_Charging_Adjusted_Penalty>
0

> <i_epik_Tot_Q>
0

> <i_epik_Tot_abs_Q>
0

> <s_epik_Chemistry_Notes>
This compound has an ester and may undergo hydrolysis at high or low pH.

> <s_lp_Force_Field>
S-OPLS

> <r_lp_Energy>
25.819

> <b_lp_Chiralities_Consistent>
1

> <s_lp_Variant>
ligprep_h3d.sdf:1231-1

> <ROCS_ShapeQuery>
_7L13

> <ROCS_TanimotoCombo>
0.710 

> <ROCS_ShapeTanimoto>
0.576 

> <ROCS_ColorTanimoto>
0.134 

> <ROCS_RefTversky>
0.766 

> <ROCS_RefColorTversky>
0.283 

> <ROCS_RefTverskyCombo>
1.049 

> <ROCS_FitTversky>
0.699 

> <ROCS_FitColorTversky>
0.203 

> <ROCS_FitTverskyCombo>
0.903 

> <ROCS_ColorScore>
-2.603

> <ROCS_Overlap>
1278.833

> <ROCS_Rank>
609                 

$$$$
ligprep_h3d.sdf:4909_1491
  -OEChem-08212117123D

 67 72  0     0  0  0  0  0  0999 V2000
  -18.9092   -7.6272  -36.5517 C   0  0  0  0  0  0  0  0  0  0  0  0
  -19.8251   -8.3110  -35.7522 C   0  0  0  0  0  0  0  0  0  0  0  0
  -18.6716   -6.2698  -36.3355 C   0  0  0  0  0  0  0  0  0  0  0  0
  -20.5035   -7.6374  -34.7365 C   0  0  0  0  0  0  0  0  0  0  0  0
  -19.3500   -5.5962  -35.3198 C   0  0  0  0  0  0  0  0  0  0  0  0
  -18.0836   -4.6718  -29.9274 C   0  0  0  0  0  0  0  0  0  0  0  0
  -20.8051   -4.5492  -30.6443 C   0  0  0  0  0  0  0  0  0  0  0  0
  -24.5142   -5.0838  -26.5444 C   0  0  0  0  0  0  0  0  0  0  0  0
  -19.0755   -4.6668  -28.9521 C   0  0  0  0  0  0  0  0  0  0  0  0
  -20.2659   -6.2799  -34.5202 C   0  0  0  0  0  0  0  0  0  0  0  0
  -20.4245   -4.6057  -29.3100 C   0  0  0  0  0  0  0  0  0  0  0  0
  -18.4574   -4.6153  -31.2698 C   0  0  0  0  0  0  0  0  0  0  0  0
  -19.8098   -4.5545  -31.6253 C   0  0  0  0  0  0  0  0  0  0  0  0
  -23.2721   -4.5703  -26.8348 C   0  0  0  0  0  0  0  0  0  0  0  0
  -23.5358   -4.2408  -24.7394 C   0  0  0  0  0  0  0  0  0  0  0  0
  -23.4858   -3.9180  -23.3513 C   0  0  0  0  0  0  0  0  0  0  0  0
  -24.5277   -4.2288  -22.5562 C   0  0  0  0  0  0  0  0  0  0  0  0
  -25.7129   -4.8904  -23.0783 C   0  0  0  0  0  0  0  0  0  0  0  0
  -25.7673   -5.1980  -24.3844 C   0  0  0  0  0  0  0  0  0  0  0  0
  -22.6264   -4.5553  -28.1548 C   0  0  0  0  0  0  0  0  0  0  0  0
  -18.1050   -3.4957  -26.9410 C   0  0  0  0  0  0  0  0  0  0  0  0
  -18.1846   -6.0195  -27.0188 C   0  0  0  0  0  0  0  0  0  0  0  0
  -20.3678   -4.6878  -26.9676 C   0  0  0  0  0  0  0  0  0  0  0  0
  -17.8247   -3.5595  -25.4437 C   0  0  0  0  0  0  0  0  0  0  0  0
  -17.9048   -6.0655  -25.5207 C   0  0  0  0  0  0  0  0  0  0  0  0
  -18.8901   -4.7196  -27.4516 C   0  0  0  0  0  0  0  0  0  0  0  0
  -16.6970   -4.9056  -23.6753 C   0  0  0  0  0  0  0  0  0  0  0  0
  -17.0795   -5.8919  -32.7284 C   0  0  0  0  0  0  0  0  0  0  0  0
  -20.9955   -5.5546  -33.4279 C   0  0  0  0  0  0  0  0  0  0  0  0
  -22.6718   -4.0510  -25.7158 N   0  0  0  0  0  0  0  0  0  0  0  0
  -24.6870   -4.8739  -25.2004 N   0  0  0  0  0  0  0  0  0  0  0  0
  -21.2385   -4.6124  -28.1612 N   0  0  0  0  0  0  0  0  0  0  0  0
  -17.1088   -4.8478  -25.1209 N   0  3  0  0  0  0  0  0  0  0  0  0
  -23.3800   -4.4921  -29.1217 O   0  0  0  0  0  0  0  0  0  0  0  0
  -17.4917   -4.6205  -32.2317 O   0  0  0  0  0  0  0  0  0  0  0  0
  -20.1715   -4.4991  -32.9392 O   0  0  0  0  0  0  0  0  0  0  0  0
  -18.3801   -8.1522  -37.3417 H   0  0  0  0  0  0  0  0  0  0  0  0
  -20.0094   -9.3681  -35.9197 H   0  0  0  0  0  0  0  0  0  0  0  0
  -17.9578   -5.7374  -36.9571 H   0  0  0  0  0  0  0  0  0  0  0  0
  -21.2154   -8.1782  -34.1186 H   0  0  0  0  0  0  0  0  0  0  0  0
  -19.1586   -4.5386  -35.1587 H   0  0  0  0  0  0  0  0  0  0  0  0
  -17.0345   -4.7188  -29.6517 H   0  0  0  0  0  0  0  0  0  0  0  0
  -21.8434   -4.5012  -30.9499 H   0  0  0  0  0  0  0  0  0  0  0  0
  -25.2673   -5.5645  -27.1542 H   0  0  0  0  0  0  0  0  0  0  0  0
  -22.6073   -3.4247  -22.9507 H   0  0  0  0  0  0  0  0  0  0  0  0
  -24.5082   -3.9912  -21.4981 H   0  0  0  0  0  0  0  0  0  0  0  0
  -26.5266   -5.1211  -22.4016 H   0  0  0  0  0  0  0  0  0  0  0  0
  -26.6187   -5.6904  -24.8382 H   0  0  0  0  0  0  0  0  0  0  0  0
  -18.6487   -2.5691  -27.1667 H   0  0  0  0  0  0  0  0  0  0  0  0
  -17.1457   -3.4156  -27.4701 H   0  0  0  0  0  0  0  0  0  0  0  0
  -17.2311   -6.1278  -27.5531 H   0  0  0  0  0  0  0  0  0  0  0  0
  -18.7849   -6.8946  -27.3000 H   0  0  0  0  0  0  0  0  0  0  0  0
  -20.6483   -5.5868  -26.4061 H   0  0  0  0  0  0  0  0  0  0  0  0
  -20.5880   -3.8195  -26.3357 H   0  0  0  0  0  0  0  0  0  0  0  0
  -17.1683   -2.7359  -25.1435 H   0  0  0  0  0  0  0  0  0  0  0  0
  -18.7409   -3.5279  -24.8448 H   0  0  0  0  0  0  0  0  0  0  0  0
  -18.8229   -6.0748  -24.9239 H   0  0  0  0  0  0  0  0  0  0  0  0
  -17.3034   -6.9464  -25.2722 H   0  0  0  0  0  0  0  0  0  0  0  0
  -17.6046   -4.8952  -23.0689 H   0  0  0  0  0  0  0  0  0  0  0  0
  -16.1347   -5.8291  -23.5247 H   0  0  0  0  0  0  0  0  0  0  0  0
  -16.0774   -4.0307  -23.4692 H   0  0  0  0  0  0  0  0  0  0  0  0
  -16.3067   -5.7539  -33.4885 H   0  0  0  0  0  0  0  0  0  0  0  0
  -17.9392   -6.4124  -33.1579 H   0  0  0  0  0  0  0  0  0  0  0  0
  -16.6742   -6.4818  -31.9029 H   0  0  0  0  0  0  0  0  0  0  0  0
  -21.9355   -5.1316  -33.7985 H   0  0  0  0  0  0  0  0  0  0  0  0
  -21.2347   -6.2349  -32.6034 H   0  0  0  0  0  0  0  0  0  0  0  0
  -16.2386   -4.8588  -25.6705 H   0  0  0  0  0  0  0  0  0  0  0  0
  1  2  2  0  0  0  0
  1  3  1  0  0  0  0
  2  4  1  0  0  0  0
  3  5  2  0  0  0  0
  4 10  2  0  0  0  0
  5 10  1  0  0  0  0
  6  9  1  0  0  0  0
  6 12  2  0  0  0  0
  7 11  1  0  0  0  0
  7 13  2  0  0  0  0
  8 14  2  0  0  0  0
  8 31  1  0  0  0  0
  9 11  2  0  0  0  0
  9 26  1  0  0  0  0
 10 29  1  0  0  0  0
 11 32  1  0  0  0  0
 12 13  1  0  0  0  0
 12 35  1  0  0  0  0
 13 36  1  0  0  0  0
 14 20  1  0  0  0  0
 14 30  1  0  0  0  0
 15 16  1  0  0  0  0
 15 30  2  0  0  0  0
 15 31  1  0  0  0  0
 16 17  2  0  0  0  0
 17 18  1  0  0  0  0
 18 19  2  0  0  0  0
 19 31  1  0  0  0  0
 20 32  1  0  0  0  0
 20 34  2  0  0  0  0
 21 24  1  0  0  0  0
 21 26  1  0  0  0  0
 22 25  1  0  0  0  0
 22 26  1  0  0  0  0
 23 26  1  0  0  0  0
 23 32  1  0  0  0  0
 24 33  1  0  0  0  0
 25 33  1  0  0  0  0
 27 33  1  0  0  0  0
 28 35  1  0  0  0  0
 29 36  1  0  0  0  0
  1 37  1  0  0  0  0
  2 38  1  0  0  0  0
  3 39  1  0  0  0  0
  4 40  1  0  0  0  0
  5 41  1  0  0  0  0
  6 42  1  0  0  0  0
  7 43  1  0  0  0  0
  8 44  1  0  0  0  0
 16 45  1  0  0  0  0
 17 46  1  0  0  0  0
 18 47  1  0  0  0  0
 19 48  1  0  0  0  0
 21 49  1  0  0  0  0
 21 50  1  0  0  0  0
 22 51  1  0  0  0  0
 22 52  1  0  0  0  0
 23 53  1  0  0  0  0
 23 54  1  0  0  0  0
 24 55  1  0  0  0  0
 24 56  1  0  0  0  0
 25 57  1  0  0  0  0
 25 58  1  0  0  0  0
 27 59  1  0  0  0  0
 27 60  1  0  0  0  0
 27 61  1  0  0  0  0
 28 62  1  0  0  0  0
 28 63  1  0  0  0  0
 28 64  1  0  0  0  0
 29 65  1  0  0  0  0
 29 66  1  0  0  0  0
 33 67  1  0  0  0  0
M  CHG  1  33   1
M  END
> <SMILES>
COc1cc2c(cc1OCc1ccccc1)N(CC12CCN(C)CC1)C(=O)c1cn2ccccc2n1

> <FORMATTED_ID>
H3D-008357

> <MOLFORMULA>
C29H30N4O3

> <Exact Mass>
482.23

> <XLogP>
5.71

> <TPSA_NOPS>
59.3

> <s_m_source_file>
ligprep_h3d.sdf

> <i_m_source_file_index>
4909

> <i_lp_mmshare_version>
55123

> <i_f3d_flags>
0

> <s_epik_input>
W2NIXTFbY0hdW2NIXVtjSF1bY0hdYzFbQ0gyXU9jKGMoW2NIXTIpT1tDSDNdKVtjSF1jKGMyQzM0W0NIMl1bQ0gyXU4oW0NIM10pW0NIMl1bQ0gyXTQpTihbQ0gyXTMpQyg9TyljKFtjSF01KW5jKG41NilbY0hdW2NIXVtjSF1bY0hdNg==

> <s_epik_cmdline>
J2VwaWtfcHl0aG9uJywgJy1waHQnLCAnMC41JywgJy1waCcsICc3LjUnLCAnLXRuJywgJzgnLCAnLW1hJywgJzUwMCcsICctaW1hZScsICc8aW5maWxlLm1hZT4nLCAnLW9tYWUnLCAnPG91dGZpbGUubWFlPic=

> <r_lp_tautomer_probability>
1

> <r_epik_Ionization_Penalty>
0.0163823

> <r_epik_Ionization_Penalty_Charging>
0.0163822

> <r_epik_Ionization_Penalty_Neutral>
4.05857e-09

> <r_epik_State_Penalty>
0.0101897

> <r_epik_Charging_Adjusted_Penalty>
0.026572

> <i_epik_Tot_Q>
1

> <i_epik_Tot_abs_Q>
1

> <s_lp_Force_Field>
S-OPLS

> <r_lp_Energy>
85.3329

> <b_lp_Chiralities_Consistent>
1

> <s_lp_Variant>
ligprep_h3d.sdf:4909-1

> <ROCS_ShapeQuery>
_7L13

> <ROCS_TanimotoCombo>
0.667 

> <ROCS_ShapeTanimoto>
0.615 

> <ROCS_ColorTanimoto>
0.052 

> <ROCS_RefTversky>
0.766 

> <ROCS_RefColorTversky>
0.113 

> <ROCS_RefTverskyCombo>
0.879 

> <ROCS_FitTversky>
0.758 

> <ROCS_FitColorTversky>
0.087 

> <ROCS_FitTverskyCombo>
0.845 

> <ROCS_ColorScore>
-1.034

> <ROCS_Overlap>
1272.741

> <ROCS_Rank>
610                 

$$$$
ligprep_h3d.sdf:664_636
  -OEChem-08212117123D

 61 65  0     0  0  0  0  0  0999 V2000
  -16.6829   -4.8481  -26.5879 C   0  0  0  0  0  0  0  0  0  0  0  0
  -23.1920   -4.2969  -28.6066 C   0  0  0  0  0  0  0  0  0  0  0  0
  -20.7609   -4.4691  -25.2405 C   0  0  0  0  0  0  0  0  0  0  0  0
  -17.1190   -6.1790  -26.4447 C   0  0  0  0  0  0  0  0  0  0  0  0
  -21.0240   -4.6620  -27.6360 C   0  0  0  0  0  0  0  0  0  0  0  0
  -22.6741   -4.5409  -29.8809 C   0  0  0  0  0  0  0  0  0  0  0  0
  -20.5027   -4.9075  -28.9177 C   0  0  0  0  0  0  0  0  0  0  0  0
  -22.3899   -4.3511  -27.4700 C   0  0  0  0  0  0  0  0  0  0  0  0
  -20.2160   -4.7165  -26.4922 C   0  0  0  0  0  0  0  0  0  0  0  0
  -21.3278   -4.8467  -30.0371 C   0  0  0  0  0  0  0  0  0  0  0  0
  -22.1075   -4.1732  -25.1779 C   0  0  0  0  0  0  0  0  0  0  0  0
  -17.8404   -4.1096  -26.6245 C   0  0  0  0  0  0  0  0  0  0  0  0
  -19.2118   -6.9341  -35.8190 C   0  0  0  0  0  0  0  0  0  0  0  0
  -22.7409   -3.9047  -23.8982 C   0  0  0  0  0  0  0  0  0  0  0  0
  -20.9462   -4.7089  -33.7343 C   0  0  0  0  0  0  0  0  0  0  0  0
  -19.1429   -6.2031  -32.7276 C   0  0  0  0  0  0  0  0  0  0  0  0
  -20.8872   -4.0603  -32.3533 C   0  0  0  0  0  0  0  0  0  0  0  0
  -20.2036   -6.3800  -31.6390 C   0  0  0  0  0  0  0  0  0  0  0  0
  -18.6570   -4.9097  -34.8552 C   0  0  0  0  0  0  0  0  0  0  0  0
  -19.7300   -5.5999  -34.0170 C   0  0  0  0  0  0  0  0  0  0  0  0
  -23.5949   -4.4668  -31.0558 C   0  0  0  0  0  0  0  0  0  0  0  0
  -19.0618   -5.2446  -29.1738 C   0  0  0  0  0  0  0  0  0  0  0  0
  -18.0465   -2.6542  -26.7600 C   0  0  0  0  0  0  0  0  0  0  0  0
  -24.8688   -4.0158  -22.5751 C   0  0  0  0  0  0  0  0  0  0  0  0
  -18.4496   -6.2829  -26.3936 N   0  0  0  0  0  0  0  0  0  0  0  0
  -22.9214   -4.1105  -26.2565 N   0  0  0  0  0  0  0  0  0  0  0  0
  -18.8597   -5.0079  -26.5053 N   0  0  0  0  0  0  0  0  0  0  0  0
  -18.2747   -5.9283  -35.7785 N   0  0  0  0  0  0  0  0  0  0  0  0
  -20.8177   -5.0893  -31.3108 N   0  0  0  0  0  0  0  0  0  0  0  0
  -24.0944   -4.2421  -23.7743 N   0  0  0  0  0  0  0  0  0  0  0  0
  -19.2273   -7.8947  -36.5751 O   0  0  0  0  0  0  0  0  0  0  0  0
  -22.0977   -3.3783  -22.9719 O   0  0  0  0  0  0  0  0  0  0  0  0
  -20.1698   -6.6912  -34.8680 O   0  0  0  0  0  0  0  0  0  0  0  0
  -15.6702   -4.4782  -26.6547 H   0  0  0  0  0  0  0  0  0  0  0  0
  -24.2493   -4.0569  -28.4997 H   0  0  0  0  0  0  0  0  0  0  0  0
  -20.1567   -4.5039  -24.3383 H   0  0  0  0  0  0  0  0  0  0  0  0
  -16.5225   -7.0773  -26.3753 H   0  0  0  0  0  0  0  0  0  0  0  0
  -21.8719   -5.2968  -33.7956 H   0  0  0  0  0  0  0  0  0  0  0  0
  -21.0157   -3.9211  -34.4977 H   0  0  0  0  0  0  0  0  0  0  0  0
  -18.3393   -5.5603  -32.3514 H   0  0  0  0  0  0  0  0  0  0  0  0
  -18.7068   -7.1850  -32.9409 H   0  0  0  0  0  0  0  0  0  0  0  0
  -20.0044   -3.4126  -32.3073 H   0  0  0  0  0  0  0  0  0  0  0  0
  -21.7697   -3.4297  -32.1949 H   0  0  0  0  0  0  0  0  0  0  0  0
  -20.9730   -7.0836  -31.9765 H   0  0  0  0  0  0  0  0  0  0  0  0
  -19.7256   -6.8108  -30.7524 H   0  0  0  0  0  0  0  0  0  0  0  0
  -19.0073   -4.0230  -35.3900 H   0  0  0  0  0  0  0  0  0  0  0  0
  -17.7678   -4.6484  -34.2726 H   0  0  0  0  0  0  0  0  0  0  0  0
  -23.6142   -3.4477  -31.4581 H   0  0  0  0  0  0  0  0  0  0  0  0
  -23.2770   -5.1516  -31.8510 H   0  0  0  0  0  0  0  0  0  0  0  0
  -24.6161   -4.7528  -30.7763 H   0  0  0  0  0  0  0  0  0  0  0  0
  -18.9208   -6.3280  -29.1332 H   0  0  0  0  0  0  0  0  0  0  0  0
  -18.7469   -4.8807  -30.1563 H   0  0  0  0  0  0  0  0  0  0  0  0
  -18.4146   -4.7727  -28.4285 H   0  0  0  0  0  0  0  0  0  0  0  0
  -18.1332   -2.3623  -27.8194 H   0  0  0  0  0  0  0  0  0  0  0  0
  -18.9607   -2.3159  -26.2432 H   0  0  0  0  0  0  0  0  0  0  0  0
  -17.2160   -2.0761  -26.3198 H   0  0  0  0  0  0  0  0  0  0  0  0
  -24.8594   -4.9244  -21.9551 H   0  0  0  0  0  0  0  0  0  0  0  0
  -24.4313   -3.1807  -22.0084 H   0  0  0  0  0  0  0  0  0  0  0  0
  -25.9053   -3.7699  -22.8492 H   0  0  0  0  0  0  0  0  0  0  0  0
  -17.4247   -5.9123  -36.3314 H   0  0  0  0  0  0  0  0  0  0  0  0
  -24.5887   -4.6107  -24.5802 H   0  0  0  0  0  0  0  0  0  0  0  0
  1  4  1  0  0  0  0
  1 12  2  0  0  0  0
  2  6  2  0  0  0  0
  2  8  1  0  0  0  0
  3  9  1  0  0  0  0
  3 11  2  0  0  0  0
  4 25  2  0  0  0  0
  5  7  1  0  0  0  0
  5  8  1  0  0  0  0
  5  9  2  0  0  0  0
  6 10  1  0  0  0  0
  6 21  1  0  0  0  0
  7 10  2  0  0  0  0
  7 22  1  0  0  0  0
  8 26  2  0  0  0  0
  9 27  1  0  0  0  0
 10 29  1  0  0  0  0
 11 14  1  0  0  0  0
 11 26  1  0  0  0  0
 12 23  1  0  0  0  0
 12 27  1  0  0  0  0
 13 28  1  0  0  0  0
 13 31  2  0  0  0  0
 13 33  1  0  0  0  0
 14 30  1  0  0  0  0
 14 32  2  0  0  0  0
 15 17  1  0  0  0  0
 15 20  1  0  0  0  0
 16 18  1  0  0  0  0
 16 20  1  0  0  0  0
 17 29  1  0  0  0  0
 18 29  1  0  0  0  0
 19 20  1  0  0  0  0
 19 28  1  0  0  0  0
 20 33  1  0  0  0  0
 24 30  1  0  0  0  0
 25 27  1  0  0  0  0
  1 34  1  0  0  0  0
  2 35  1  0  0  0  0
  3 36  1  0  0  0  0
  4 37  1  0  0  0  0
 15 38  1  0  0  0  0
 15 39  1  0  0  0  0
 16 40  1  0  0  0  0
 16 41  1  0  0  0  0
 17 42  1  0  0  0  0
 17 43  1  0  0  0  0
 18 44  1  0  0  0  0
 18 45  1  0  0  0  0
 19 46  1  0  0  0  0
 19 47  1  0  0  0  0
 21 48  1  0  0  0  0
 21 49  1  0  0  0  0
 21 50  1  0  0  0  0
 22 51  1  0  0  0  0
 22 52  1  0  0  0  0
 22 53  1  0  0  0  0
 23 54  1  0  0  0  0
 23 55  1  0  0  0  0
 23 56  1  0  0  0  0
 24 57  1  0  0  0  0
 24 58  1  0  0  0  0
 24 59  1  0  0  0  0
 28 60  1  0  0  0  0
 30 61  1  0  0  0  0
M  END
> <SMILES>
CNC(=O)c1cc(c2c(c(c(cc2n1)C)N1CCC2(CC1)CNC(=O)O2)C)-n1nccc1C

> <FORMATTED_ID>
H3D-004787

> <MOLFORMULA>
C24H28N6O3

> <Exact Mass>
448.22

> <XLogP>
1.92

> <TPSA_NOPS>
101.4

> <s_m_source_file>
ligprep_h3d.sdf

> <i_m_source_file_index>
664

> <i_lp_mmshare_version>
55123

> <i_f3d_flags>
0

> <s_epik_input>
W0NIM11jMVtjSF1bY0hdbm4xLWMyW2NIXWMoQyg9TylbTkhdW0NIM10pbmMoYzIzKVtjSF1jKFtDSDNdKWMoYzNbQ0gzXSlOKFtDSDJdW0NIMl00KVtDSDJdW0NIMl1DNDVbQ0gyXVtOSF1DKD1PKU81

> <s_epik_cmdline>
J2VwaWtfcHl0aG9uJywgJy1waHQnLCAnMC41JywgJy1waCcsICc3LjUnLCAnLXRuJywgJzgnLCAnLW1hJywgJzUwMCcsICctaW1hZScsICc8aW5maWxlLm1hZT4nLCAnLW9tYWUnLCAnPG91dGZpbGUubWFlPic=

> <r_lp_tautomer_probability>
1

> <r_epik_Ionization_Penalty>
7.30619e-05

> <r_epik_Ionization_Penalty_Charging>
0

> <r_epik_Ionization_Penalty_Neutral>
7.30619e-05

> <r_epik_State_Penalty>
-0

> <r_epik_Charging_Adjusted_Penalty>
0

> <i_epik_Tot_Q>
0

> <i_epik_Tot_abs_Q>
0

> <s_epik_Chemistry_Notes>
This compound has an ester and may undergo hydrolysis at high or low pH.

> <s_lp_Force_Field>
S-OPLS

> <r_lp_Energy>
57.9963

> <b_lp_Chiralities_Consistent>
1

> <s_lp_Variant>
ligprep_h3d.sdf:664-1

> <ROCS_ShapeQuery>
_7L13

> <ROCS_TanimotoCombo>
0.762 

> <ROCS_ShapeTanimoto>
0.651 

> <ROCS_ColorTanimoto>
0.111 

> <ROCS_RefTversky>
0.766 

> <ROCS_RefColorTversky>
0.220 

> <ROCS_RefTverskyCombo>
0.986 

> <ROCS_FitTversky>
0.812 

> <ROCS_FitColorTversky>
0.184 

> <ROCS_FitTverskyCombo>
0.996 

> <ROCS_ColorScore>
-2.006

> <ROCS_Overlap>
1267.929

> <ROCS_Rank>
611                 

$$$$
ligprep_h3d.sdf:2258_1517
  -OEChem-08212117123D

 66 70  0     0  0  0  0  0  0999 V2000
  -16.2552   -5.7918  -25.4517 C   0  0  0  0  0  0  0  0  0  0  0  0
  -25.7709   -5.0944  -23.5322 C   0  0  0  0  0  0  0  0  0  0  0  0
  -24.9399   -4.3909  -22.6573 C   0  0  0  0  0  0  0  0  0  0  0  0
  -18.6657   -5.7788  -25.0398 C   0  0  0  0  0  0  0  0  0  0  0  0
  -17.4855   -3.6851  -25.2866 C   0  0  0  0  0  0  0  0  0  0  0  0
  -19.8598   -5.0833  -24.8497 C   0  0  0  0  0  0  0  0  0  0  0  0
  -18.6796   -2.9896  -25.0966 C   0  0  0  0  0  0  0  0  0  0  0  0
  -19.6584   -4.8065  -35.2542 C   0  0  0  0  0  0  0  0  0  0  0  0
  -21.1843   -6.4169  -34.2974 C   0  0  0  0  0  0  0  0  0  0  0  0
  -19.1619   -5.7871  -36.1129 C   0  0  0  0  0  0  0  0  0  0  0  0
  -20.6878   -7.3975  -35.1562 C   0  0  0  0  0  0  0  0  0  0  0  0
  -25.4087   -5.2895  -24.8710 C   0  0  0  0  0  0  0  0  0  0  0  0
  -23.7198   -3.8579  -23.0860 C   0  0  0  0  0  0  0  0  0  0  0  0
  -17.4786   -5.0797  -25.2582 C   0  0  0  0  0  0  0  0  0  0  0  0
  -20.6696   -5.1214  -34.3464 C   0  0  0  0  0  0  0  0  0  0  0  0
  -19.8667   -3.6887  -24.8782 C   0  0  0  0  0  0  0  0  0  0  0  0
  -19.6766   -7.0826  -36.0640 C   0  0  0  0  0  0  0  0  0  0  0  0
  -24.1864   -4.7606  -25.3188 C   0  0  0  0  0  0  0  0  0  0  0  0
  -23.3797   -4.0643  -24.4233 C   0  0  0  0  0  0  0  0  0  0  0  0
  -22.4693   -4.1607  -26.4374 C   0  0  0  0  0  0  0  0  0  0  0  0
  -19.8305   -4.5857  -29.0530 C   0  0  0  0  0  0  0  0  0  0  0  0
  -22.2946   -4.6375  -29.5975 C   0  0  0  0  0  0  0  0  0  0  0  0
  -19.5520   -5.4629  -30.2653 C   0  0  0  0  0  0  0  0  0  0  0  0
  -22.0010   -5.5141  -30.8069 C   0  0  0  0  0  0  0  0  0  0  0  0
  -21.2404   -4.8083  -28.5017 C   0  0  0  0  0  0  0  0  0  0  0  0
  -21.2049   -4.0664  -33.4219 C   0  0  0  0  0  0  0  0  0  0  0  0
  -21.1552   -2.9385  -24.6748 C   0  0  0  0  0  0  0  0  0  0  0  0
  -20.4641   -3.9788  -32.0914 C   0  0  0  0  0  0  0  0  0  0  0  0
  -19.1463   -8.1301  -36.9837 C   0  0  0  0  0  0  0  0  0  0  0  0
  -15.2615   -6.3702  -25.6090 N   0  0  0  0  0  0  0  0  0  0  0  0
  -23.6046   -4.8103  -26.5648 N   0  0  0  0  0  0  0  0  0  0  0  0
  -22.2884   -3.6923  -25.1658 N   0  0  0  0  0  0  0  0  0  0  0  0
  -21.5036   -3.9192  -27.3954 N   0  0  0  0  0  0  0  0  0  0  0  0
  -20.6063   -5.2671  -31.3266 N   0  3  0  0  0  0  0  0  0  0  0  0
  -18.1621   -7.6798  -37.8169 F   0  0  0  0  0  0  0  0  0  0  0  0
  -18.6013   -9.2017  -36.3354 F   0  0  0  0  0  0  0  0  0  0  0  0
  -20.1093   -8.6477  -37.8009 F   0  0  0  0  0  0  0  0  0  0  0  0
  -26.7132   -5.4970  -23.1692 H   0  0  0  0  0  0  0  0  0  0  0  0
  -25.2462   -4.2551  -21.6230 H   0  0  0  0  0  0  0  0  0  0  0  0
  -18.6760   -6.8658  -25.0128 H   0  0  0  0  0  0  0  0  0  0  0  0
  -16.5688   -3.1256  -25.4574 H   0  0  0  0  0  0  0  0  0  0  0  0
  -20.7797   -5.6362  -24.6793 H   0  0  0  0  0  0  0  0  0  0  0  0
  -18.6759   -1.9031  -25.1223 H   0  0  0  0  0  0  0  0  0  0  0  0
  -19.2512   -3.7998  -35.2991 H   0  0  0  0  0  0  0  0  0  0  0  0
  -21.9732   -6.6704  -33.5942 H   0  0  0  0  0  0  0  0  0  0  0  0
  -18.3753   -5.5321  -36.8180 H   0  0  0  0  0  0  0  0  0  0  0  0
  -21.0944   -8.4044  -35.1117 H   0  0  0  0  0  0  0  0  0  0  0  0
  -26.0612   -5.8374  -25.5431 H   0  0  0  0  0  0  0  0  0  0  0  0
  -23.0756   -3.3123  -22.4058 H   0  0  0  0  0  0  0  0  0  0  0  0
  -19.1044   -4.8210  -28.2697 H   0  0  0  0  0  0  0  0  0  0  0  0
  -19.6818   -3.5353  -29.3124 H   0  0  0  0  0  0  0  0  0  0  0  0
  -22.3608   -3.5906  -29.9052 H   0  0  0  0  0  0  0  0  0  0  0  0
  -23.2751   -4.9056  -29.1914 H   0  0  0  0  0  0  0  0  0  0  0  0
  -18.5745   -5.2392  -30.7223 H   0  0  0  0  0  0  0  0  0  0  0  0
  -19.5680   -6.5266  -29.9806 H   0  0  0  0  0  0  0  0  0  0  0  0
  -22.0633   -6.5788  -30.5311 H   0  0  0  0  0  0  0  0  0  0  0  0
  -22.7039   -5.3283  -31.6357 H   0  0  0  0  0  0  0  0  0  0  0  0
  -21.3042   -5.8448  -28.1151 H   0  0  0  0  0  0  0  0  0  0  0  0
  -21.1307   -3.0924  -33.9237 H   0  0  0  0  0  0  0  0  0  0  0  0
  -22.2762   -4.2249  -33.2422 H   0  0  0  0  0  0  0  0  0  0  0  0
  -21.3227   -2.7196  -23.6132 H   0  0  0  0  0  0  0  0  0  0  0  0
  -21.1366   -1.9717  -25.1924 H   0  0  0  0  0  0  0  0  0  0  0  0
  -20.8939   -3.1967  -31.4587 H   0  0  0  0  0  0  0  0  0  0  0  0
  -19.3919   -3.7977  -32.2135 H   0  0  0  0  0  0  0  0  0  0  0  0
  -20.9467   -3.0791  -27.3250 H   0  0  0  0  0  0  0  0  0  0  0  0
  -20.4320   -6.0319  -32.0418 H   0  0  0  0  0  0  0  0  0  0  0  0
  1 14  1  0  0  0  0
  1 30  3  0  0  0  0
  2  3  2  0  0  0  0
  2 12  1  0  0  0  0
  3 13  1  0  0  0  0
  4  6  1  0  0  0  0
  4 14  2  0  0  0  0
  5  7  2  0  0  0  0
  5 14  1  0  0  0  0
  6 16  2  0  0  0  0
  7 16  1  0  0  0  0
  8 10  1  0  0  0  0
  8 15  2  0  0  0  0
  9 11  2  0  0  0  0
  9 15  1  0  0  0  0
 10 17  2  0  0  0  0
 11 17  1  0  0  0  0
 12 18  2  0  0  0  0
 13 19  2  0  0  0  0
 15 26  1  0  0  0  0
 16 27  1  0  0  0  0
 17 29  1  0  0  0  0
 18 19  1  0  0  0  0
 18 31  1  0  0  0  0
 19 32  1  0  0  0  0
 20 31  2  0  0  0  0
 20 32  1  0  0  0  0
 20 33  1  0  0  0  0
 21 23  1  0  0  0  0
 21 25  1  0  0  0  0
 22 24  1  0  0  0  0
 22 25  1  0  0  0  0
 23 34  1  0  0  0  0
 24 34  1  0  0  0  0
 25 33  1  0  0  0  0
 26 28  1  0  0  0  0
 27 32  1  0  0  0  0
 28 34  1  0  0  0  0
 29 35  1  0  0  0  0
 29 36  1  0  0  0  0
 29 37  1  0  0  0  0
  2 38  1  0  0  0  0
  3 39  1  0  0  0  0
  4 40  1  0  0  0  0
  5 41  1  0  0  0  0
  6 42  1  0  0  0  0
  7 43  1  0  0  0  0
  8 44  1  0  0  0  0
  9 45  1  0  0  0  0
 10 46  1  0  0  0  0
 11 47  1  0  0  0  0
 12 48  1  0  0  0  0
 13 49  1  0  0  0  0
 21 50  1  0  0  0  0
 21 51  1  0  0  0  0
 22 52  1  0  0  0  0
 22 53  1  0  0  0  0
 23 54  1  0  0  0  0
 23 55  1  0  0  0  0
 24 56  1  0  0  0  0
 24 57  1  0  0  0  0
 25 58  1  0  0  0  0
 26 59  1  0  0  0  0
 26 60  1  0  0  0  0
 27 61  1  0  0  0  0
 27 62  1  0  0  0  0
 28 63  1  0  0  0  0
 28 64  1  0  0  0  0
 33 65  1  0  0  0  0
 34 66  1  0  0  0  0
M  CHG  1  34   1
M  END
> <SMILES>
FC(F)(F)c1ccc(cc1)CCN1CCC(CC1)Nc1nc2ccccc2n1Cc1ccc(cc1)C#N

> <FORMATTED_ID>
H3D-005075

> <MOLFORMULA>
C29H28F3N5

> <Exact Mass>
503.23

> <XLogP>
7.51

> <TPSA_NOPS>
56.9

> <s_m_source_file>
ligprep_h3d.sdf

> <i_m_source_file_index>
2258

> <i_lp_mmshare_version>
55123

> <i_f3d_flags>
0

> <s_epik_input>
RkMoRikoRiljMVtjSF1bY0hdYyhbY0hdW2NIXTEpW0NIMl1bQ0gyXU4yW0NIMl1bQ0gyXVtDSF0oW0NIMl1bQ0gyXTIpW05IXWMobjMpbihjKGMzNClbY0hdW2NIXVtjSF1bY0hdNClbQ0gyXWM1W2NIXVtjSF1jKEMjTilbY0hdW2NIXTU=

> <s_epik_cmdline>
J2VwaWtfcHl0aG9uJywgJy1waHQnLCAnMC41JywgJy1waCcsICc3LjUnLCAnLXRuJywgJzgnLCAnLW1hJywgJzUwMCcsICctaW1hZScsICc8aW5maWxlLm1hZT4nLCAnLW9tYWUnLCAnPG91dGZpbGUubWFlPic=

> <r_epik_Ionization_Penalty>
0.235184

> <r_epik_Ionization_Penalty_Charging>
0.00852525

> <r_epik_Ionization_Penalty_Neutral>
0.226659

> <r_epik_State_Penalty>
0.217166

> <r_epik_Charging_Adjusted_Penalty>
0.225691

> <i_epik_Tot_Q>
1

> <i_epik_Tot_abs_Q>
1

> <s_lp_Force_Field>
S-OPLS

> <r_lp_Energy>
43.0152

> <b_lp_Chiralities_Consistent>
1

> <s_lp_Variant>
ligprep_h3d.sdf:2258-1

> <ROCS_ShapeQuery>
_7L13

> <ROCS_TanimotoCombo>
0.669 

> <ROCS_ShapeTanimoto>
0.612 

> <ROCS_ColorTanimoto>
0.057 

> <ROCS_RefTversky>
0.766 

> <ROCS_RefColorTversky>
0.113 

> <ROCS_RefTverskyCombo>
0.879 

> <ROCS_FitTversky>
0.753 

> <ROCS_FitColorTversky>
0.103 

> <ROCS_FitTverskyCombo>
0.855 

> <ROCS_ColorScore>
-1.023

> <ROCS_Overlap>
1272.818

> <ROCS_Rank>
612                 

$$$$
ligprep_h3d.sdf:5413_1504
  -OEChem-08212117123D

 78 83  0     0  0  0  0  0  0999 V2000
  -20.3496   -7.4325  -34.4816 C   0  0  0  0  0  0  0  0  0  0  0  0
  -19.3128   -5.2874  -34.8831 C   0  0  0  0  0  0  0  0  0  0  0  0
  -20.2744   -7.7237  -35.8437 C   0  0  0  0  0  0  0  0  0  0  0  0
  -19.2376   -5.5787  -36.2451 C   0  0  0  0  0  0  0  0  0  0  0  0
  -16.4818   -4.0185  -23.3125 C   0  0  0  0  0  0  0  0  0  0  0  0
  -17.5258   -6.6417  -25.5411 C   0  0  0  0  0  0  0  0  0  0  0  0
  -22.8519   -3.8295  -29.3213 C   0  0  0  0  0  0  0  0  0  0  0  0
  -20.4463   -5.1249  -30.0071 C   0  0  0  0  0  0  0  0  0  0  0  0
  -15.9109   -4.7282  -22.2736 C   0  0  0  0  0  0  0  0  0  0  0  0
  -16.3289   -6.8552  -23.2572 C   0  0  0  0  0  0  0  0  0  0  0  0
  -16.9172   -6.1915  -24.3329 C   0  0  0  0  0  0  0  0  0  0  0  0
  -21.8838   -4.0870  -28.3562 C   0  0  0  0  0  0  0  0  0  0  0  0
  -19.8689   -6.2143  -34.0013 C   0  0  0  0  0  0  0  0  0  0  0  0
  -16.9850   -4.7982  -24.3460 C   0  0  0  0  0  0  0  0  0  0  0  0
  -20.6916   -4.7298  -28.6986 C   0  0  0  0  0  0  0  0  0  0  0  0
  -22.6133   -4.2230  -30.6378 C   0  0  0  0  0  0  0  0  0  0  0  0
  -21.4177   -4.8665  -30.9778 C   0  0  0  0  0  0  0  0  0  0  0  0
  -19.7184   -6.7969  -36.7254 C   0  0  0  0  0  0  0  0  0  0  0  0
  -17.9403   -5.5352  -26.2453 C   0  0  0  0  0  0  0  0  0  0  0  0
  -18.6197   -5.4830  -27.5473 C   0  0  0  0  0  0  0  0  0  0  0  0
  -23.1106   -4.4725  -26.1874 C   0  0  0  0  0  0  0  0  0  0  0  0
  -22.0521   -2.2280  -26.6601 C   0  0  0  0  0  0  0  0  0  0  0  0
  -20.5678   -4.2945  -26.3982 C   0  0  0  0  0  0  0  0  0  0  0  0
  -23.2511   -4.0871  -24.7190 C   0  0  0  0  0  0  0  0  0  0  0  0
  -22.1990   -1.8587  -25.1882 C   0  0  0  0  0  0  0  0  0  0  0  0
  -21.9412   -3.7488  -26.8828 C   0  0  0  0  0  0  0  0  0  0  0  0
  -26.0950   -2.7082  -23.6915 C   0  0  0  0  0  0  0  0  0  0  0  0
  -25.3875   -2.0323  -21.3875 C   0  0  0  0  0  0  0  0  0  0  0  0
  -23.4676   -2.7314  -32.2813 C   0  0  0  0  0  0  0  0  0  0  0  0
  -19.9487   -5.9006  -32.5362 C   0  0  0  0  0  0  0  0  0  0  0  0
  -23.6495   -2.1638  -23.1849 C   0  0  0  0  0  0  0  0  0  0  0  0
  -24.9623   -2.7640  -22.6648 C   0  0  0  0  0  0  0  0  0  0  0  0
  -17.6090   -4.4266  -25.5151 N   0  0  0  0  0  0  0  0  0  0  0  0
  -15.8606   -6.0631  -22.2893 N   0  3  0  0  0  0  0  0  0  0  0  0
  -19.8715   -4.8811  -27.5642 N   0  0  0  0  0  0  0  0  0  0  0  0
  -23.3829   -2.5885  -24.6031 N   0  3  0  0  0  0  0  0  0  0  0  0
  -18.0121   -5.9792  -28.4914 O   0  0  0  0  0  0  0  0  0  0  0  0
  -24.7500   -4.1375  -22.3286 O   0  0  0  0  0  0  0  0  0  0  0  0
  -23.5571   -3.9750  -31.5895 O   0  0  0  0  0  0  0  0  0  0  0  0
  -21.1882   -5.2503  -32.2664 O   0  0  0  0  0  0  0  0  0  0  0  0
  -19.6437   -7.0776  -38.0330 F   0  0  0  0  0  0  0  0  0  0  0  0
  -20.7852   -8.1606  -33.8024 H   0  0  0  0  0  0  0  0  0  0  0  0
  -18.9354   -4.3359  -34.5179 H   0  0  0  0  0  0  0  0  0  0  0  0
  -20.6480   -8.6722  -36.2176 H   0  0  0  0  0  0  0  0  0  0  0  0
  -18.8052   -4.8572  -36.9319 H   0  0  0  0  0  0  0  0  0  0  0  0
  -16.5318   -2.9373  -23.3177 H   0  0  0  0  0  0  0  0  0  0  0  0
  -17.6448   -7.6701  -25.8562 H   0  0  0  0  0  0  0  0  0  0  0  0
  -23.7797   -3.3311  -29.0574 H   0  0  0  0  0  0  0  0  0  0  0  0
  -19.5312   -5.6247  -30.3012 H   0  0  0  0  0  0  0  0  0  0  0  0
  -15.4784   -4.2551  -21.4017 H   0  0  0  0  0  0  0  0  0  0  0  0
  -16.2167   -7.9228  -23.1312 H   0  0  0  0  0  0  0  0  0  0  0  0
  -22.9889   -5.5609  -26.2641 H   0  0  0  0  0  0  0  0  0  0  0  0
  -24.0549   -4.2404  -26.6984 H   0  0  0  0  0  0  0  0  0  0  0  0
  -22.9177   -1.8286  -27.2059 H   0  0  0  0  0  0  0  0  0  0  0  0
  -21.1755   -1.7135  -27.0749 H   0  0  0  0  0  0  0  0  0  0  0  0
  -19.9234   -3.5104  -25.9836 H   0  0  0  0  0  0  0  0  0  0  0  0
  -20.6682   -5.0782  -25.6383 H   0  0  0  0  0  0  0  0  0  0  0  0
  -24.1585   -4.5294  -24.2943 H   0  0  0  0  0  0  0  0  0  0  0  0
  -22.3862   -4.3931  -24.1211 H   0  0  0  0  0  0  0  0  0  0  0  0
  -21.3164   -2.1287  -24.5989 H   0  0  0  0  0  0  0  0  0  0  0  0
  -22.3904   -0.7857  -25.0818 H   0  0  0  0  0  0  0  0  0  0  0  0
  -25.8233   -3.2231  -24.6186 H   0  0  0  0  0  0  0  0  0  0  0  0
  -26.3452   -1.6690  -23.9358 H   0  0  0  0  0  0  0  0  0  0  0  0
  -27.0167   -3.1510  -23.2990 H   0  0  0  0  0  0  0  0  0  0  0  0
  -24.5893   -2.0598  -20.6366 H   0  0  0  0  0  0  0  0  0  0  0  0
  -25.6382   -0.9853  -21.5873 H   0  0  0  0  0  0  0  0  0  0  0  0
  -26.2572   -2.5177  -20.9299 H   0  0  0  0  0  0  0  0  0  0  0  0
  -24.2781   -2.6603  -33.0109 H   0  0  0  0  0  0  0  0  0  0  0  0
  -22.5010   -2.6634  -32.7868 H   0  0  0  0  0  0  0  0  0  0  0  0
  -23.5575   -1.9159  -31.5598 H   0  0  0  0  0  0  0  0  0  0  0  0
  -19.8870   -6.8148  -31.9359 H   0  0  0  0  0  0  0  0  0  0  0  0
  -19.1254   -5.2440  -32.2348 H   0  0  0  0  0  0  0  0  0  0  0  0
  -22.7907   -2.5175  -22.6052 H   0  0  0  0  0  0  0  0  0  0  0  0
  -23.6652   -1.0694  -23.1835 H   0  0  0  0  0  0  0  0  0  0  0  0
  -17.7940   -3.4718  -25.7908 H   0  0  0  0  0  0  0  0  0  0  0  0
  -15.4241   -6.5202  -21.4880 H   0  0  0  0  0  0  0  0  0  0  0  0
  -24.2110   -2.3124  -25.1485 H   0  0  0  0  0  0  0  0  0  0  0  0
  -25.5862   -4.4594  -21.9611 H   0  0  0  0  0  0  0  0  0  0  0  0
  1  3  1  0  0  0  0
  1 13  2  0  0  0  0
  2  4  2  0  0  0  0
  2 13  1  0  0  0  0
  3 18  2  0  0  0  0
  4 18  1  0  0  0  0
  5  9  1  0  0  0  0
  5 14  2  0  0  0  0
  6 11  1  0  0  0  0
  6 19  2  0  0  0  0
  7 12  1  0  0  0  0
  7 16  2  0  0  0  0
  8 15  1  0  0  0  0
  8 17  2  0  0  0  0
  9 34  2  0  0  0  0
 10 11  2  0  0  0  0
 10 34  1  0  0  0  0
 11 14  1  0  0  0  0
 12 15  2  0  0  0  0
 12 26  1  0  0  0  0
 13 30  1  0  0  0  0
 14 33  1  0  0  0  0
 15 35  1  0  0  0  0
 16 17  1  0  0  0  0
 16 39  1  0  0  0  0
 17 40  1  0  0  0  0
 18 41  1  0  0  0  0
 19 20  1  0  0  0  0
 19 33  1  0  0  0  0
 20 35  1  0  0  0  0
 20 37  2  0  0  0  0
 21 24  1  0  0  0  0
 21 26  1  0  0  0  0
 22 25  1  0  0  0  0
 22 26  1  0  0  0  0
 23 26  1  0  0  0  0
 23 35  1  0  0  0  0
 24 36  1  0  0  0  0
 25 36  1  0  0  0  0
 27 32  1  0  0  0  0
 28 32  1  0  0  0  0
 29 39  1  0  0  0  0
 30 40  1  0  0  0  0
 31 32  1  0  0  0  0
 31 36  1  0  0  0  0
 32 38  1  0  0  0  0
  1 42  1  0  0  0  0
  2 43  1  0  0  0  0
  3 44  1  0  0  0  0
  4 45  1  0  0  0  0
  5 46  1  0  0  0  0
  6 47  1  0  0  0  0
  7 48  1  0  0  0  0
  8 49  1  0  0  0  0
  9 50  1  0  0  0  0
 10 51  1  0  0  0  0
 21 52  1  0  0  0  0
 21 53  1  0  0  0  0
 22 54  1  0  0  0  0
 22 55  1  0  0  0  0
 23 56  1  0  0  0  0
 23 57  1  0  0  0  0
 24 58  1  0  0  0  0
 24 59  1  0  0  0  0
 25 60  1  0  0  0  0
 25 61  1  0  0  0  0
 27 62  1  0  0  0  0
 27 63  1  0  0  0  0
 27 64  1  0  0  0  0
 28 65  1  0  0  0  0
 28 66  1  0  0  0  0
 28 67  1  0  0  0  0
 29 68  1  0  0  0  0
 29 69  1  0  0  0  0
 29 70  1  0  0  0  0
 30 71  1  0  0  0  0
 30 72  1  0  0  0  0
 31 73  1  0  0  0  0
 31 74  1  0  0  0  0
 33 75  1  0  0  0  0
 34 76  1  0  0  0  0
 36 77  1  0  0  0  0
 38 78  1  0  0  0  0
M  CHG  2  34   1  36   1
M  END
> <SMILES>
COc1cc2c(cc1OCc1ccc(cc1)F)N(CC12CCN(CC1)CC(C)(C)O)C(=O)c1cc2cnccc2[nH]1

> <FORMATTED_ID>
H3D-015208

> <MOLFORMULA>
C32H35FN4O4

> <Exact Mass>
558.26

> <XLogP>
5.38

> <TPSA_NOPS>
90.9

> <s_m_source_file>
ligprep_h3d.sdf

> <i_m_source_file_index>
5413

> <i_lp_mmshare_version>
55123

> <i_f3d_flags>
0

> <s_epik_input>
W2NIXTFbY0hdYyhGKVtjSF1bY0hdYzFbQ0gyXU9jKGMoW2NIXTIpT1tDSDNdKVtjSF1jKGMyQzM0W0NIMl1bQ0gyXU4oW0NIMl1bQ0gyXTQpW0NIMl1DKFtDSDNdKShbQ0gzXSlbT0hdKU4oW0NIMl0zKUMoPU8pYyhbY0hdNSlbbkhdYyhjNTYpW2NIXVtjSF1uW2NIXTY=

> <s_epik_cmdline>
J2VwaWtfcHl0aG9uJywgJy1waHQnLCAnMC41JywgJy1waCcsICc3LjUnLCAnLXRuJywgJzgnLCAnLW1hJywgJzUwMCcsICctaW1hZScsICc8aW5maWxlLm1hZT4nLCAnLW9tYWUnLCAnPG91dGZpbGUubWFlPic=

> <r_lp_tautomer_probability>
1

> <r_epik_Ionization_Penalty>
0.286103

> <r_epik_Ionization_Penalty_Charging>
0.286075

> <r_epik_Ionization_Penalty_Neutral>
2.88865e-05

> <r_epik_State_Penalty>
0.268523

> <r_epik_Charging_Adjusted_Penalty>
0.554597

> <i_epik_Tot_Q>
2

> <i_epik_Tot_abs_Q>
2

> <s_lp_Force_Field>
S-OPLS

> <r_lp_Energy>
87.2142

> <b_lp_Chiralities_Consistent>
1

> <s_lp_Variant>
ligprep_h3d.sdf:5413-1

> <ROCS_ShapeQuery>
_7L13

> <ROCS_TanimotoCombo>
0.621 

> <ROCS_ShapeTanimoto>
0.563 

> <ROCS_ColorTanimoto>
0.058 

> <ROCS_RefTversky>
0.766 

> <ROCS_RefColorTversky>
0.152 

> <ROCS_RefTverskyCombo>
0.918 

> <ROCS_FitTversky>
0.680 

> <ROCS_FitColorTversky>
0.086 

> <ROCS_FitTverskyCombo>
0.766 

> <ROCS_ColorScore>
-1.431

> <ROCS_Overlap>
1280.458

> <ROCS_Rank>
613                 

$$$$
ligprep_h3d.sdf:4933_39
  -OEChem-08212117123D

 65 69  0     0  0  0  0  0  0999 V2000
  -19.3092   -6.0318  -35.6017 C   0  0  0  0  0  0  0  0  0  0  0  0
  -14.0794   -5.6947  -25.3945 C   0  0  0  0  0  0  0  0  0  0  0  0
  -20.2141   -4.9781  -35.7296 C   0  0  0  0  0  0  0  0  0  0  0  0
  -19.2619   -6.7710  -34.4197 C   0  0  0  0  0  0  0  0  0  0  0  0
  -14.5805   -4.3946  -25.3292 C   0  0  0  0  0  0  0  0  0  0  0  0
  -14.9548   -6.7746  -25.5090 C   0  0  0  0  0  0  0  0  0  0  0  0
  -21.0716   -4.6634  -34.6754 C   0  0  0  0  0  0  0  0  0  0  0  0
  -20.1194   -6.4563  -33.3656 C   0  0  0  0  0  0  0  0  0  0  0  0
  -15.9570   -4.1744  -25.3783 C   0  0  0  0  0  0  0  0  0  0  0  0
  -16.3313   -6.5545  -25.5581 C   0  0  0  0  0  0  0  0  0  0  0  0
  -23.2680   -4.0247  -28.4090 C   0  0  0  0  0  0  0  0  0  0  0  0
  -20.6039   -4.3838  -29.2556 C   0  0  0  0  0  0  0  0  0  0  0  0
  -22.2537   -4.2519  -27.4850 C   0  0  0  0  0  0  0  0  0  0  0  0
  -21.0243   -5.4025  -33.4934 C   0  0  0  0  0  0  0  0  0  0  0  0
  -20.9338   -4.4295  -27.9080 C   0  0  0  0  0  0  0  0  0  0  0  0
  -16.8324   -5.2544  -25.4928 C   0  0  0  0  0  0  0  0  0  0  0  0
  -22.9458   -3.9773  -29.7653 C   0  0  0  0  0  0  0  0  0  0  0  0
  -21.6222   -4.1558  -30.1851 C   0  0  0  0  0  0  0  0  0  0  0  0
  -18.7214   -4.8559  -26.8331 C   0  0  0  0  0  0  0  0  0  0  0  0
  -22.8951   -3.0139  -25.3840 C   0  0  0  0  0  0  0  0  0  0  0  0
  -23.3023   -5.5010  -25.5601 C   0  0  0  0  0  0  0  0  0  0  0  0
  -20.9047   -4.6098  -25.5706 C   0  0  0  0  0  0  0  0  0  0  0  0
  -23.1195   -3.0928  -23.8781 C   0  0  0  0  0  0  0  0  0  0  0  0
  -23.5221   -5.5624  -24.0528 C   0  0  0  0  0  0  0  0  0  0  0  0
  -22.3808   -4.3392  -25.9789 C   0  0  0  0  0  0  0  0  0  0  0  0
  -24.4089   -4.2817  -22.1076 C   0  0  0  0  0  0  0  0  0  0  0  0
  -24.2053   -2.3984  -31.0208 C   0  0  0  0  0  0  0  0  0  0  0  0
  -21.9463   -5.0643  -32.3589 C   0  0  0  0  0  0  0  0  0  0  0  0
  -20.0937   -4.6431  -26.8019 N   0  0  0  0  0  0  0  0  0  0  0  0
  -24.0540   -4.2362  -23.5685 N   0  3  0  0  0  0  0  0  0  0  0  0
  -18.0205   -4.8890  -27.8412 O   0  0  0  0  0  0  0  0  0  0  0  0
  -18.2127   -5.0343  -25.5403 O   0  0  0  0  0  0  0  0  0  0  0  0
  -23.9336   -3.7555  -30.6779 O   0  0  0  0  0  0  0  0  0  0  0  0
  -21.3116   -4.1090  -31.5124 O   0  0  0  0  0  0  0  0  0  0  0  0
  -18.6425   -6.2776  -36.4232 H   0  0  0  0  0  0  0  0  0  0  0  0
  -13.0076   -5.8664  -25.3569 H   0  0  0  0  0  0  0  0  0  0  0  0
  -20.2519   -4.4031  -36.6502 H   0  0  0  0  0  0  0  0  0  0  0  0
  -18.5583   -7.5922  -34.3203 H   0  0  0  0  0  0  0  0  0  0  0  0
  -13.8990   -3.5536  -25.2398 H   0  0  0  0  0  0  0  0  0  0  0  0
  -14.5638   -7.7867  -25.5600 H   0  0  0  0  0  0  0  0  0  0  0  0
  -21.7733   -3.8405  -34.7839 H   0  0  0  0  0  0  0  0  0  0  0  0
  -20.0754   -7.0376  -32.4483 H   0  0  0  0  0  0  0  0  0  0  0  0
  -16.3410   -3.1593  -25.3254 H   0  0  0  0  0  0  0  0  0  0  0  0
  -17.0086   -7.3997  -25.6455 H   0  0  0  0  0  0  0  0  0  0  0  0
  -24.2946   -3.8858  -28.0840 H   0  0  0  0  0  0  0  0  0  0  0  0
  -19.5884   -4.5187  -29.6083 H   0  0  0  0  0  0  0  0  0  0  0  0
  -23.8429   -2.7291  -25.8609 H   0  0  0  0  0  0  0  0  0  0  0  0
  -22.1944   -2.1973  -25.6017 H   0  0  0  0  0  0  0  0  0  0  0  0
  -22.8923   -6.4596  -25.9039 H   0  0  0  0  0  0  0  0  0  0  0  0
  -24.2808   -5.4019  -26.0494 H   0  0  0  0  0  0  0  0  0  0  0  0
  -20.4912   -3.8313  -24.9191 H   0  0  0  0  0  0  0  0  0  0  0  0
  -20.7725   -5.5707  -25.0596 H   0  0  0  0  0  0  0  0  0  0  0  0
  -22.1896   -3.2635  -23.3255 H   0  0  0  0  0  0  0  0  0  0  0  0
  -23.5929   -2.1749  -23.5145 H   0  0  0  0  0  0  0  0  0  0  0  0
  -24.2701   -6.3239  -23.8084 H   0  0  0  0  0  0  0  0  0  0  0  0
  -22.5987   -5.7727  -23.5034 H   0  0  0  0  0  0  0  0  0  0  0  0
  -23.4918   -4.4711  -21.5469 H   0  0  0  0  0  0  0  0  0  0  0  0
  -24.8413   -3.3161  -21.8385 H   0  0  0  0  0  0  0  0  0  0  0  0
  -25.1303   -5.0884  -21.9640 H   0  0  0  0  0  0  0  0  0  0  0  0
  -25.0126   -2.3622  -31.7564 H   0  0  0  0  0  0  0  0  0  0  0  0
  -23.3031   -1.9378  -31.4312 H   0  0  0  0  0  0  0  0  0  0  0  0
  -24.5106   -1.8588  -30.1213 H   0  0  0  0  0  0  0  0  0  0  0  0
  -22.8867   -4.6432  -32.7305 H   0  0  0  0  0  0  0  0  0  0  0  0
  -22.1861   -5.9591  -31.7743 H   0  0  0  0  0  0  0  0  0  0  0  0
  -24.9326   -4.0569  -24.0742 H   0  0  0  0  0  0  0  0  0  0  0  0
  1  3  2  0  0  0  0
  1  4  1  0  0  0  0
  2  5  2  0  0  0  0
  2  6  1  0  0  0  0
  3  7  1  0  0  0  0
  4  8  2  0  0  0  0
  5  9  1  0  0  0  0
  6 10  2  0  0  0  0
  7 14  2  0  0  0  0
  8 14  1  0  0  0  0
  9 16  2  0  0  0  0
 10 16  1  0  0  0  0
 11 13  1  0  0  0  0
 11 17  2  0  0  0  0
 12 15  1  0  0  0  0
 12 18  2  0  0  0  0
 13 15  2  0  0  0  0
 13 25  1  0  0  0  0
 14 28  1  0  0  0  0
 15 29  1  0  0  0  0
 16 32  1  0  0  0  0
 17 18  1  0  0  0  0
 17 33  1  0  0  0  0
 18 34  1  0  0  0  0
 19 29  1  0  0  0  0
 19 31  2  0  0  0  0
 19 32  1  0  0  0  0
 20 23  1  0  0  0  0
 20 25  1  0  0  0  0
 21 24  1  0  0  0  0
 21 25  1  0  0  0  0
 22 25  1  0  0  0  0
 22 29  1  0  0  0  0
 23 30  1  0  0  0  0
 24 30  1  0  0  0  0
 26 30  1  0  0  0  0
 27 33  1  0  0  0  0
 28 34  1  0  0  0  0
  1 35  1  0  0  0  0
  2 36  1  0  0  0  0
  3 37  1  0  0  0  0
  4 38  1  0  0  0  0
  5 39  1  0  0  0  0
  6 40  1  0  0  0  0
  7 41  1  0  0  0  0
  8 42  1  0  0  0  0
  9 43  1  0  0  0  0
 10 44  1  0  0  0  0
 11 45  1  0  0  0  0
 12 46  1  0  0  0  0
 20 47  1  0  0  0  0
 20 48  1  0  0  0  0
 21 49  1  0  0  0  0
 21 50  1  0  0  0  0
 22 51  1  0  0  0  0
 22 52  1  0  0  0  0
 23 53  1  0  0  0  0
 23 54  1  0  0  0  0
 24 55  1  0  0  0  0
 24 56  1  0  0  0  0
 26 57  1  0  0  0  0
 26 58  1  0  0  0  0
 26 59  1  0  0  0  0
 27 60  1  0  0  0  0
 27 61  1  0  0  0  0
 27 62  1  0  0  0  0
 28 63  1  0  0  0  0
 28 64  1  0  0  0  0
 30 65  1  0  0  0  0
M  CHG  1  30   1
M  END
> <SMILES>
COc1cc2c(cc1OCc1ccccc1)N(CC12CCN(C)CC1)C(=O)Oc1ccccc1

> <FORMATTED_ID>
H3D-008398

> <MOLFORMULA>
C28H30N2O4

> <Exact Mass>
458.22

> <XLogP>
6.09

> <TPSA_NOPS>
51.2

> <s_m_source_file>
ligprep_h3d.sdf

> <i_m_source_file_index>
4933

> <i_lp_mmshare_version>
55123

> <i_f3d_flags>
0

> <s_epik_input>
W2NIXTFbY0hdW2NIXVtjSF1bY0hdYzFbQ0gyXU9jKGMoW2NIXTIpT1tDSDNdKVtjSF1jKGMyQzM0W0NIMl1bQ0gyXU4oW0NIM10pW0NIMl1bQ0gyXTQpTihbQ0gyXTMpQyg9TylPYzVbY0hdW2NIXVtjSF1bY0hdW2NIXTU=

> <s_epik_cmdline>
J2VwaWtfcHl0aG9uJywgJy1waHQnLCAnMC41JywgJy1waCcsICc3LjUnLCAnLXRuJywgJzgnLCAnLW1hJywgJzUwMCcsICctaW1hZScsICc8aW5maWxlLm1hZT4nLCAnLW9tYWUnLCAnPG91dGZpbGUubWFlPic=

> <r_lp_tautomer_probability>
1

> <r_epik_Ionization_Penalty>
0.0142663

> <r_epik_Ionization_Penalty_Charging>
0.0142663

> <r_epik_Ionization_Penalty_Neutral>
1.9159e-09

> <r_epik_State_Penalty>
0.0111493

> <r_epik_Charging_Adjusted_Penalty>
0.0254156

> <i_epik_Tot_Q>
1

> <i_epik_Tot_abs_Q>
1

> <s_lp_Force_Field>
S-OPLS

> <r_lp_Energy>
70.6231

> <b_lp_Chiralities_Consistent>
1

> <s_lp_Variant>
ligprep_h3d.sdf:4933-1

> <ROCS_ShapeQuery>
_7L13

> <ROCS_TanimotoCombo>
0.737 

> <ROCS_ShapeTanimoto>
0.650 

> <ROCS_ColorTanimoto>
0.087 

> <ROCS_RefTversky>
0.766 

> <ROCS_RefColorTversky>
0.169 

> <ROCS_RefTverskyCombo>
0.934 

> <ROCS_FitTversky>
0.811 

> <ROCS_FitColorTversky>
0.153 

> <ROCS_FitTverskyCombo>
0.964 

> <ROCS_ColorScore>
-1.525

> <ROCS_Overlap>
1267.536

> <ROCS_Rank>
614                 

$$$$
ligprep_h3d.sdf:4719_1660
  -OEChem-08212117123D

 59 63  0     1  0  0  0  0  0999 V2000
  -24.9773   -5.0393  -22.5549 C   0  0  0  0  0  0  0  0  0  0  0  0
  -23.6648   -4.7914  -22.9567 C   0  0  0  0  0  0  0  0  0  0  0  0
  -26.0322   -4.8099  -23.4382 C   0  0  0  0  0  0  0  0  0  0  0  0
  -20.0968   -4.2484  -34.1599 C   0  0  0  0  0  0  0  0  0  0  0  0
  -20.4337   -6.1198  -32.6695 C   0  0  0  0  0  0  0  0  0  0  0  0
  -23.4072   -4.3139  -24.2418 C   0  0  0  0  0  0  0  0  0  0  0  0
  -25.7747   -4.3324  -24.7232 C   0  0  0  0  0  0  0  0  0  0  0  0
  -19.5911   -5.1126  -35.1309 C   0  0  0  0  0  0  0  0  0  0  0  0
  -19.9280   -6.9841  -33.6406 C   0  0  0  0  0  0  0  0  0  0  0  0
  -15.2157   -5.3715  -25.0183 C   0  0  0  0  0  0  0  0  0  0  0  0
  -15.9569   -6.3979  -25.5673 C   0  0  0  0  0  0  0  0  0  0  0  0
  -15.8002   -4.1223  -25.0640 C   0  0  0  0  0  0  0  0  0  0  0  0
  -20.5181   -4.7519  -32.9292 C   0  0  0  0  0  0  0  0  0  0  0  0
  -24.4621   -4.0844  -25.1250 C   0  0  0  0  0  0  0  0  0  0  0  0
  -19.5067   -6.4805  -34.8713 C   0  0  0  0  0  0  0  0  0  0  0  0
  -17.6375   -4.9646  -26.1043 C   0  0  0  0  0  0  0  0  0  0  0  0
  -22.0810   -4.4965  -31.0006 C   0  0  0  0  0  0  0  0  0  0  0  0
  -22.6861   -5.1176  -28.6768 C   0  0  0  0  0  0  0  0  0  0  0  0
  -19.8271   -5.6466  -27.2805 C   0  0  0  0  0  0  0  0  0  0  0  0
  -19.8329   -3.6835  -26.5307 C   0  0  0  0  0  0  0  0  0  0  0  0
  -20.6046   -3.9124  -29.0249 C   0  0  0  0  0  0  0  0  0  0  0  0
  -22.2088   -4.6229  -27.3152 C   0  0  1  0  0  0  0  0  0  0  0  0
  -20.7152   -4.4057  -27.5784 C   0  0  0  0  0  0  0  0  0  0  0  0
  -21.0624   -3.8228  -31.8853 C   0  0  0  0  0  0  0  0  0  0  0  0
  -22.9047   -3.3221  -26.9192 C   0  0  0  0  0  0  0  0  0  0  0  0
  -17.1758   -6.2295  -26.1207 N   0  0  0  0  0  0  0  0  0  0  0  0
  -17.0141   -3.8818  -25.6016 N   0  0  0  0  0  0  0  0  0  0  0  0
  -18.9024   -4.7523  -26.6700 N   0  0  0  0  0  0  0  0  0  0  0  0
  -21.7917   -4.4959  -29.6454 N   0  0  0  0  0  0  0  0  0  0  0  0
  -24.2046   -3.6064  -26.4120 N   0  0  0  0  0  0  0  0  0  0  0  0
  -23.0896   -5.0076  -31.4904 O   0  0  0  0  0  0  0  0  0  0  0  0
  -19.0144   -7.3239  -35.8194 O   0  0  0  0  0  0  0  0  0  0  0  0
  -25.1778   -5.4109  -21.5541 H   0  0  0  0  0  0  0  0  0  0  0  0
  -22.8437   -4.9699  -22.2690 H   0  0  0  0  0  0  0  0  0  0  0  0
  -27.0543   -5.0030  -23.1251 H   0  0  0  0  0  0  0  0  0  0  0  0
  -20.1589   -3.1841  -34.3708 H   0  0  0  0  0  0  0  0  0  0  0  0
  -20.7595   -6.5211  -31.7133 H   0  0  0  0  0  0  0  0  0  0  0  0
  -22.3809   -4.1238  -24.5451 H   0  0  0  0  0  0  0  0  0  0  0  0
  -26.6048   -4.1575  -25.4030 H   0  0  0  0  0  0  0  0  0  0  0  0
  -19.2648   -4.7143  -36.0880 H   0  0  0  0  0  0  0  0  0  0  0  0
  -19.8652   -8.0485  -33.4324 H   0  0  0  0  0  0  0  0  0  0  0  0
  -14.2394   -5.5342  -24.5819 H   0  0  0  0  0  0  0  0  0  0  0  0
  -15.5802   -7.4152  -25.5771 H   0  0  0  0  0  0  0  0  0  0  0  0
  -15.2928   -3.2537  -24.6581 H   0  0  0  0  0  0  0  0  0  0  0  0
  -22.5485   -6.2014  -28.7695 H   0  0  0  0  0  0  0  0  0  0  0  0
  -23.7320   -4.8841  -28.8996 H   0  0  0  0  0  0  0  0  0  0  0  0
  -20.2400   -6.3669  -26.5656 H   0  0  0  0  0  0  0  0  0  0  0  0
  -19.4097   -6.1765  -28.1408 H   0  0  0  0  0  0  0  0  0  0  0  0
  -19.4223   -2.7145  -26.8254 H   0  0  0  0  0  0  0  0  0  0  0  0
  -20.2498   -3.6271  -25.5197 H   0  0  0  0  0  0  0  0  0  0  0  0
  -20.6922   -2.8229  -29.0918 H   0  0  0  0  0  0  0  0  0  0  0  0
  -19.6952   -4.2357  -29.5393 H   0  0  0  0  0  0  0  0  0  0  0  0
  -22.3911   -5.3731  -26.5379 H   0  0  0  0  0  0  0  0  0  0  0  0
  -20.2529   -3.4453  -31.2582 H   0  0  0  0  0  0  0  0  0  0  0  0
  -21.5300   -2.9522  -32.3476 H   0  0  0  0  0  0  0  0  0  0  0  0
  -22.2903   -2.8472  -26.1564 H   0  0  0  0  0  0  0  0  0  0  0  0
  -22.9680   -2.7052  -27.8138 H   0  0  0  0  0  0  0  0  0  0  0  0
  -25.0175   -3.4557  -27.0151 H   0  0  0  0  0  0  0  0  0  0  0  0
  -19.0192   -8.2375  -35.4921 H   0  0  0  0  0  0  0  0  0  0  0  0
  1  2  2  0  0  0  0
  1  3  1  0  0  0  0
  2  6  1  0  0  0  0
  3  7  2  0  0  0  0
  4  8  1  0  0  0  0
  4 13  2  0  0  0  0
  5  9  2  0  0  0  0
  5 13  1  0  0  0  0
  6 14  2  0  0  0  0
  7 14  1  0  0  0  0
  8 15  2  0  0  0  0
  9 15  1  0  0  0  0
 10 11  2  0  0  0  0
 10 12  1  0  0  0  0
 11 26  1  0  0  0  0
 12 27  2  0  0  0  0
 13 24  1  0  0  0  0
 14 30  1  0  0  0  0
 15 32  1  0  0  0  0
 16 26  2  0  0  0  0
 16 27  1  0  0  0  0
 16 28  1  0  0  0  0
 17 24  1  0  0  0  0
 17 29  1  0  0  0  0
 17 31  2  0  0  0  0
 18 22  1  0  0  0  0
 18 29  1  0  0  0  0
 19 23  1  0  0  0  0
 19 28  1  0  0  0  0
 20 23  1  0  0  0  0
 20 28  1  0  0  0  0
 21 23  1  0  0  0  0
 21 29  1  0  0  0  0
 22 23  1  0  0  0  0
 22 25  1  0  0  0  0
 25 30  1  0  0  0  0
  1 33  1  0  0  0  0
  2 34  1  0  0  0  0
  3 35  1  0  0  0  0
  4 36  1  0  0  0  0
  5 37  1  0  0  0  0
  6 38  1  0  0  0  0
  7 39  1  0  0  0  0
  8 40  1  0  0  0  0
  9 41  1  0  0  0  0
 10 42  1  0  0  0  0
 11 43  1  0  0  0  0
 12 44  1  0  0  0  0
 18 45  1  0  0  0  0
 18 46  1  0  0  0  0
 19 47  1  0  0  0  0
 19 48  1  0  0  0  0
 20 49  1  0  0  0  0
 20 50  1  0  0  0  0
 21 51  1  0  0  0  0
 21 52  1  0  0  0  0
 22 53  1  0  0  0  0
 24 54  1  0  0  0  0
 24 55  1  0  0  0  0
 25 56  1  0  0  0  0
 25 57  1  0  0  0  0
 30 58  1  0  0  0  0
 32 59  1  0  0  0  0
M  END
> <SMILES>
Oc1ccc(cc1)CC(=O)N1CC(CNc2ccccc2)C2(C1)CN(C2)c1ncccn1

> <FORMATTED_ID>
H3D-006899

> <MOLFORMULA>
C25H27N5O2

> <Exact Mass>
429.22

> <XLogP>
2.41

> <TPSA_NOPS>
81.6

> <s_m_source_file>
ligprep_h3d.sdf

> <i_m_source_file_index>
4719

> <i_lp_mmshare_version>
55123

> <i_f3d_flags>
0

> <s_epik_input>
W09IXWMxW2NIXVtjSF1jKFtjSF1bY0hdMSlbQ0gyXUMoPU8pTihbQ0gyXTIpW0NIMl1bQ0BIXShbQ0gyXVtOSF1jM1tjSF1bY0hdW2NIXVtjSF1bY0hdMylDMjRbQ0gyXU4oW0NIMl00KWM1bltjSF1bY0hdW2NIXW41

> <s_epik_cmdline>
J2VwaWtfcHl0aG9uJywgJy1waHQnLCAnMC41JywgJy1waCcsICc3LjUnLCAnLXRuJywgJzgnLCAnLW1hJywgJzUwMCcsICctaW1hZScsICc8aW5maWxlLm1hZT4nLCAnLW9tYWUnLCAnPG91dGZpbGUubWFlPic=

> <r_lp_tautomer_probability>
1

> <r_epik_Ionization_Penalty>
0.0049633

> <r_epik_Ionization_Penalty_Charging>
0

> <r_epik_Ionization_Penalty_Neutral>
0.0049633

> <r_epik_State_Penalty>
-0

> <r_epik_Charging_Adjusted_Penalty>
0

> <i_epik_Tot_Q>
0

> <i_epik_Tot_abs_Q>
0

> <s_lp_Force_Field>
S-OPLS

> <r_lp_Energy>
44.1482

> <b_lp_Chiralities_Consistent>
1

> <s_lp_Variant>
ligprep_h3d.sdf:4719-1

> <ROCS_ShapeQuery>
_7L13

> <ROCS_TanimotoCombo>
0.737 

> <ROCS_ShapeTanimoto>
0.677 

> <ROCS_ColorTanimoto>
0.060 

> <ROCS_RefTversky>
0.766 

> <ROCS_RefColorTversky>
0.124 

> <ROCS_RefTverskyCombo>
0.889 

> <ROCS_FitTversky>
0.854 

> <ROCS_FitColorTversky>
0.103 

> <ROCS_FitTverskyCombo>
0.957 

> <ROCS_ColorScore>
-1.125

> <ROCS_Overlap>
1264.181

> <ROCS_Rank>
615                 

$$$$
ligprep_h3d.sdf:4756_1506
  -OEChem-08212117123D

 68 73  0     0  0  0  0  0  0999 V2000
  -19.4521   -7.3214  -36.4217 C   0  0  0  0  0  0  0  0  0  0  0  0
  -25.5768   -5.7332  -23.9400 C   0  0  0  0  0  0  0  0  0  0  0  0
  -18.8734   -6.0636  -36.2523 C   0  0  0  0  0  0  0  0  0  0  0  0
  -20.4712   -7.7411  -35.5666 C   0  0  0  0  0  0  0  0  0  0  0  0
  -25.5511   -4.9704  -22.7741 C   0  0  0  0  0  0  0  0  0  0  0  0
  -24.7746   -5.3943  -25.0357 C   0  0  0  0  0  0  0  0  0  0  0  0
  -19.3136   -5.2256  -35.2278 C   0  0  0  0  0  0  0  0  0  0  0  0
  -20.9114   -6.9031  -34.5421 C   0  0  0  0  0  0  0  0  0  0  0  0
  -24.7254   -3.8477  -22.6655 C   0  0  0  0  0  0  0  0  0  0  0  0
  -18.6422   -5.4016  -29.6222 C   0  0  0  0  0  0  0  0  0  0  0  0
  -21.4107   -4.9496  -29.8807 C   0  0  0  0  0  0  0  0  0  0  0  0
  -22.4764   -2.5563  -25.1935 C   0  0  0  0  0  0  0  0  0  0  0  0
  -23.9342   -4.2666  -24.9494 C   0  0  0  0  0  0  0  0  0  0  0  0
  -23.0129   -3.6464  -25.8391 C   0  0  0  0  0  0  0  0  0  0  0  0
  -19.4000   -4.9920  -28.5299 C   0  0  0  0  0  0  0  0  0  0  0  0
  -20.3326   -5.6453  -34.3727 C   0  0  0  0  0  0  0  0  0  0  0  0
  -23.9290   -3.5208  -23.7687 C   0  0  0  0  0  0  0  0  0  0  0  0
  -20.7728   -4.7682  -28.6606 C   0  0  0  0  0  0  0  0  0  0  0  0
  -19.2752   -5.5861  -30.8511 C   0  0  0  0  0  0  0  0  0  0  0  0
  -20.6508   -5.3614  -30.9788 C   0  0  0  0  0  0  0  0  0  0  0  0
  -22.6593   -4.0523  -27.2065 C   0  0  0  0  0  0  0  0  0  0  0  0
  -17.8832   -3.5904  -27.0835 C   0  0  0  0  0  0  0  0  0  0  0  0
  -18.3199   -6.0066  -26.4890 C   0  0  0  0  0  0  0  0  0  0  0  0
  -20.2430   -4.3216  -26.4208 C   0  0  0  0  0  0  0  0  0  0  0  0
  -17.3096   -3.3604  -25.6897 C   0  0  0  0  0  0  0  0  0  0  0  0
  -17.7443   -5.7593  -25.0991 C   0  0  0  0  0  0  0  0  0  0  0  0
  -18.9163   -4.7334  -27.1200 C   0  0  0  0  0  0  0  0  0  0  0  0
  -16.0334   -4.4497  -23.8469 C   0  0  0  0  0  0  0  0  0  0  0  0
  -18.4169   -7.3927  -32.1377 C   0  0  0  0  0  0  0  0  0  0  0  0
  -20.8065   -4.7444  -33.2703 C   0  0  0  0  0  0  0  0  0  0  0  0
  -23.0350   -2.4890  -23.9453 N   0  0  0  0  0  0  0  0  0  0  0  0
  -21.3239   -4.3627  -27.4300 N   0  0  0  0  0  0  0  0  0  0  0  0
  -16.7244   -4.6496  -25.1680 N   0  3  0  0  0  0  0  0  0  0  0  0
  -23.5813   -4.0749  -28.0165 O   0  0  0  0  0  0  0  0  0  0  0  0
  -18.5400   -5.9880  -31.9262 O   0  0  0  0  0  0  0  0  0  0  0  0
  -21.2663   -5.5426  -32.1824 O   0  0  0  0  0  0  0  0  0  0  0  0
  -19.1102   -7.9732  -37.2203 H   0  0  0  0  0  0  0  0  0  0  0  0
  -26.2268   -6.6024  -24.0000 H   0  0  0  0  0  0  0  0  0  0  0  0
  -18.0807   -5.7362  -36.9186 H   0  0  0  0  0  0  0  0  0  0  0  0
  -20.9228   -8.7198  -35.6989 H   0  0  0  0  0  0  0  0  0  0  0  0
  -26.1827   -5.2514  -21.9352 H   0  0  0  0  0  0  0  0  0  0  0  0
  -24.8059   -5.9992  -25.9372 H   0  0  0  0  0  0  0  0  0  0  0  0
  -18.8567   -4.2474  -35.1032 H   0  0  0  0  0  0  0  0  0  0  0  0
  -21.7058   -7.2385  -33.8807 H   0  0  0  0  0  0  0  0  0  0  0  0
  -24.7066   -3.2547  -21.7573 H   0  0  0  0  0  0  0  0  0  0  0  0
  -17.5751   -5.5758  -29.5233 H   0  0  0  0  0  0  0  0  0  0  0  0
  -22.4735   -4.7832  -30.0100 H   0  0  0  0  0  0  0  0  0  0  0  0
  -21.7479   -1.8213  -25.5071 H   0  0  0  0  0  0  0  0  0  0  0  0
  -18.3307   -2.6564  -27.4476 H   0  0  0  0  0  0  0  0  0  0  0  0
  -17.0528   -3.8106  -27.7680 H   0  0  0  0  0  0  0  0  0  0  0  0
  -17.5218   -6.4071  -27.1287 H   0  0  0  0  0  0  0  0  0  0  0  0
  -19.0789   -6.7975  -26.4290 H   0  0  0  0  0  0  0  0  0  0  0  0
  -20.5205   -5.0012  -25.6065 H   0  0  0  0  0  0  0  0  0  0  0  0
  -20.2071   -3.3065  -26.0083 H   0  0  0  0  0  0  0  0  0  0  0  0
  -16.4995   -2.6246  -25.7276 H   0  0  0  0  0  0  0  0  0  0  0  0
  -18.0686   -3.0253  -24.9749 H   0  0  0  0  0  0  0  0  0  0  0  0
  -18.5111   -5.4634  -24.3754 H   0  0  0  0  0  0  0  0  0  0  0  0
  -17.2299   -6.6549  -24.7346 H   0  0  0  0  0  0  0  0  0  0  0  0
  -16.7854   -4.1348  -23.1211 H   0  0  0  0  0  0  0  0  0  0  0  0
  -15.5831   -5.4013  -23.5580 H   0  0  0  0  0  0  0  0  0  0  0  0
  -15.2714   -3.6797  -23.9816 H   0  0  0  0  0  0  0  0  0  0  0  0
  -17.8072   -7.5762  -33.0257 H   0  0  0  0  0  0  0  0  0  0  0  0
  -19.4096   -7.8310  -32.2673 H   0  0  0  0  0  0  0  0  0  0  0  0
  -17.9332   -7.8422  -31.2672 H   0  0  0  0  0  0  0  0  0  0  0  0
  -19.9970   -4.0951  -32.9197 H   0  0  0  0  0  0  0  0  0  0  0  0
  -21.6248   -4.1044  -33.6173 H   0  0  0  0  0  0  0  0  0  0  0  0
  -22.8223   -1.7836  -23.2534 H   0  0  0  0  0  0  0  0  0  0  0  0
  -15.9970   -4.9452  -25.8334 H   0  0  0  0  0  0  0  0  0  0  0  0
  1  3  2  0  0  0  0
  1  4  1  0  0  0  0
  2  5  1  0  0  0  0
  2  6  2  0  0  0  0
  3  7  1  0  0  0  0
  4  8  2  0  0  0  0
  5  9  2  0  0  0  0
  6 13  1  0  0  0  0
  7 16  2  0  0  0  0
  8 16  1  0  0  0  0
  9 17  1  0  0  0  0
 10 15  1  0  0  0  0
 10 19  2  0  0  0  0
 11 18  1  0  0  0  0
 11 20  2  0  0  0  0
 12 14  2  0  0  0  0
 12 31  1  0  0  0  0
 13 14  1  0  0  0  0
 13 17  2  0  0  0  0
 14 21  1  0  0  0  0
 15 18  2  0  0  0  0
 15 27  1  0  0  0  0
 16 30  1  0  0  0  0
 17 31  1  0  0  0  0
 18 32  1  0  0  0  0
 19 20  1  0  0  0  0
 19 35  1  0  0  0  0
 20 36  1  0  0  0  0
 21 32  1  0  0  0  0
 21 34  2  0  0  0  0
 22 25  1  0  0  0  0
 22 27  1  0  0  0  0
 23 26  1  0  0  0  0
 23 27  1  0  0  0  0
 24 27  1  0  0  0  0
 24 32  1  0  0  0  0
 25 33  1  0  0  0  0
 26 33  1  0  0  0  0
 28 33  1  0  0  0  0
 29 35  1  0  0  0  0
 30 36  1  0  0  0  0
  1 37  1  0  0  0  0
  2 38  1  0  0  0  0
  3 39  1  0  0  0  0
  4 40  1  0  0  0  0
  5 41  1  0  0  0  0
  6 42  1  0  0  0  0
  7 43  1  0  0  0  0
  8 44  1  0  0  0  0
  9 45  1  0  0  0  0
 10 46  1  0  0  0  0
 11 47  1  0  0  0  0
 12 48  1  0  0  0  0
 22 49  1  0  0  0  0
 22 50  1  0  0  0  0
 23 51  1  0  0  0  0
 23 52  1  0  0  0  0
 24 53  1  0  0  0  0
 24 54  1  0  0  0  0
 25 55  1  0  0  0  0
 25 56  1  0  0  0  0
 26 57  1  0  0  0  0
 26 58  1  0  0  0  0
 28 59  1  0  0  0  0
 28 60  1  0  0  0  0
 28 61  1  0  0  0  0
 29 62  1  0  0  0  0
 29 63  1  0  0  0  0
 29 64  1  0  0  0  0
 30 65  1  0  0  0  0
 30 66  1  0  0  0  0
 31 67  1  0  0  0  0
 33 68  1  0  0  0  0
M  CHG  1  33   1
M  END
> <SMILES>
COc1cc2c(cc1OCc1ccccc1)N(CC12CCN(C)CC1)C(=O)c1c[nH]c2ccccc12

> <FORMATTED_ID>
H3D-007397

> <MOLFORMULA>
C30H31N3O3

> <Exact Mass>
481.24

> <XLogP>
6.59

> <TPSA_NOPS>
57.8

> <s_m_source_file>
ligprep_h3d.sdf

> <i_m_source_file_index>
4756

> <i_lp_mmshare_version>
55123

> <i_f3d_flags>
0

> <s_epik_input>
W2NIXTFbY0hdW2NIXVtjSF1bY0hdYzFbQ0gyXU9jKGMoW2NIXTIpT1tDSDNdKVtjSF1jKGMyQzM0W0NIMl1bQ0gyXU4oW0NIM10pW0NIMl1bQ0gyXTQpTihbQ0gyXTMpQyg9TyljKFtjSF1bbkhdNSljKGM1NilbY0hdW2NIXVtjSF1bY0hdNg==

> <s_epik_cmdline>
J2VwaWtfcHl0aG9uJywgJy1waHQnLCAnMC41JywgJy1waCcsICc3LjUnLCAnLXRuJywgJzgnLCAnLW1hJywgJzUwMCcsICctaW1hZScsICc8aW5maWxlLm1hZT4nLCAnLW9tYWUnLCAnPG91dGZpbGUubWFlPic=

> <r_lp_tautomer_probability>
1

> <r_epik_Ionization_Penalty>
0.0121631

> <r_epik_Ionization_Penalty_Charging>
0.012163

> <r_epik_Ionization_Penalty_Neutral>
1.89891e-07

> <r_epik_State_Penalty>
0.00940041

> <r_epik_Charging_Adjusted_Penalty>
0.0215634

> <i_epik_Tot_Q>
1

> <i_epik_Tot_abs_Q>
1

> <s_lp_Force_Field>
S-OPLS

> <r_lp_Energy>
79.9753

> <b_lp_Chiralities_Consistent>
1

> <s_lp_Variant>
ligprep_h3d.sdf:4756-1

> <ROCS_ShapeQuery>
_7L13

> <ROCS_TanimotoCombo>
0.672 

> <ROCS_ShapeTanimoto>
0.617 

> <ROCS_ColorTanimoto>
0.055 

> <ROCS_RefTversky>
0.766 

> <ROCS_RefColorTversky>
0.119 

> <ROCS_RefTverskyCombo>
0.885 

> <ROCS_FitTversky>
0.761 

> <ROCS_FitColorTversky>
0.092 

> <ROCS_FitTverskyCombo>
0.853 

> <ROCS_ColorScore>
-1.093

> <ROCS_Overlap>
1271.833

> <ROCS_Rank>
616                 

$$$$
ligprep_h3d.sdf:4030_1267
  -OEChem-08212117123D

 49 51  0     0  0  0  0  0  0999 V2000
  -23.3765   -5.2795  -26.2775 C   0  0  0  0  0  0  0  0  0  0  0  0
  -22.0534   -3.5024  -25.3141 C   0  0  0  0  0  0  0  0  0  0  0  0
  -24.1418   -5.3411  -25.1130 C   0  0  0  0  0  0  0  0  0  0  0  0
  -22.8187   -3.5638  -24.1496 C   0  0  0  0  0  0  0  0  0  0  0  0
  -20.9592   -7.5301  -33.9679 C   0  0  0  0  0  0  0  0  0  0  0  0
  -19.6489   -5.5020  -34.0508 C   0  0  0  0  0  0  0  0  0  0  0  0
  -20.3780   -7.9546  -35.1627 C   0  0  0  0  0  0  0  0  0  0  0  0
  -19.0676   -5.9265  -35.2457 C   0  0  0  0  0  0  0  0  0  0  0  0
  -22.1575   -4.0030  -28.7958 C   0  0  0  0  0  0  0  0  0  0  0  0
  -20.0389   -4.1769  -29.8625 C   0  0  0  0  0  0  0  0  0  0  0  0
  -22.3322   -4.3602  -26.3781 C   0  0  0  0  0  0  0  0  0  0  0  0
  -21.5384   -4.2966  -27.5859 C   0  0  0  0  0  0  0  0  0  0  0  0
  -21.4006   -3.9401  -29.9604 C   0  0  0  0  0  0  0  0  0  0  0  0
  -20.5947   -6.3038  -33.4120 C   0  0  0  0  0  0  0  0  0  0  0  0
  -23.8629   -4.4832  -24.0490 C   0  0  0  0  0  0  0  0  0  0  0  0
  -19.4322   -7.1528  -35.8016 C   0  0  0  0  0  0  0  0  0  0  0  0
  -20.1706   -4.5176  -27.5943 C   0  0  0  0  0  0  0  0  0  0  0  0
  -22.0171   -3.6357  -31.2398 C   0  0  0  0  0  0  0  0  0  0  0  0
  -22.5331   -4.3502  -33.5869 C   0  0  0  0  0  0  0  0  0  0  0  0
  -21.2196   -5.8464  -32.1257 C   0  0  0  0  0  0  0  0  0  0  0  0
  -24.6810   -4.5491  -22.8038 C   0  0  0  0  0  0  0  0  0  0  0  0
  -18.8099   -7.6080  -37.0783 C   0  0  0  0  0  0  0  0  0  0  0  0
  -19.4021   -4.4650  -28.7053 N   0  0  0  0  0  0  0  0  0  0  0  0
  -19.5240   -4.8182  -26.3686 N   0  0  0  0  0  0  0  0  0  0  0  0
  -21.9271   -4.5774  -32.2824 N   0  0  0  0  0  0  0  0  0  0  0  0
  -22.6081   -2.5510  -31.3366 O   0  0  0  0  0  0  0  0  0  0  0  0
  -25.6666   -5.4940  -22.8455 F   0  0  0  0  0  0  0  0  0  0  0  0
  -23.9529   -4.8434  -21.6862 F   0  0  0  0  0  0  0  0  0  0  0  0
  -25.3142   -3.3717  -22.5286 F   0  0  0  0  0  0  0  0  0  0  0  0
  -19.2599   -8.8258  -37.5030 F   0  0  0  0  0  0  0  0  0  0  0  0
  -19.0313   -6.7612  -38.1269 F   0  0  0  0  0  0  0  0  0  0  0  0
  -17.4536   -7.7307  -36.9869 F   0  0  0  0  0  0  0  0  0  0  0  0
  -23.6059   -5.9554  -27.0979 H   0  0  0  0  0  0  0  0  0  0  0  0
  -21.2431   -2.7799  -25.3776 H   0  0  0  0  0  0  0  0  0  0  0  0
  -24.9527   -6.0612  -25.0429 H   0  0  0  0  0  0  0  0  0  0  0  0
  -22.5948   -2.8913  -23.3257 H   0  0  0  0  0  0  0  0  0  0  0  0
  -21.6955   -8.1613  -33.4772 H   0  0  0  0  0  0  0  0  0  0  0  0
  -19.3580   -4.5458  -33.6239 H   0  0  0  0  0  0  0  0  0  0  0  0
  -20.6669   -8.9122  -35.5874 H   0  0  0  0  0  0  0  0  0  0  0  0
  -18.3314   -5.2958  -35.7371 H   0  0  0  0  0  0  0  0  0  0  0  0
  -23.2296   -3.8221  -28.8378 H   0  0  0  0  0  0  0  0  0  0  0  0
  -19.3959   -4.1416  -30.7368 H   0  0  0  0  0  0  0  0  0  0  0  0
  -21.8103   -3.8452  -34.2445 H   0  0  0  0  0  0  0  0  0  0  0  0
  -22.8207   -5.3148  -34.0305 H   0  0  0  0  0  0  0  0  0  0  0  0
  -23.4265   -3.7190  -33.4710 H   0  0  0  0  0  0  0  0  0  0  0  0
  -21.9364   -6.5892  -31.7591 H   0  0  0  0  0  0  0  0  0  0  0  0
  -20.4619   -5.7132  -31.3463 H   0  0  0  0  0  0  0  0  0  0  0  0
  -20.0608   -4.8161  -25.5293 H   0  0  0  0  0  0  0  0  0  0  0  0
  -18.5342   -4.9312  -26.3631 H   0  0  0  0  0  0  0  0  0  0  0  0
  1  3  1  0  0  0  0
  1 11  2  0  0  0  0
  2  4  2  0  0  0  0
  2 11  1  0  0  0  0
  3 15  2  0  0  0  0
  4 15  1  0  0  0  0
  5  7  1  0  0  0  0
  5 14  2  0  0  0  0
  6  8  2  0  0  0  0
  6 14  1  0  0  0  0
  7 16  2  0  0  0  0
  8 16  1  0  0  0  0
  9 12  2  0  0  0  0
  9 13  1  0  0  0  0
 10 13  2  0  0  0  0
 10 23  1  0  0  0  0
 11 12  1  0  0  0  0
 12 17  1  0  0  0  0
 13 18  1  0  0  0  0
 14 20  1  0  0  0  0
 15 21  1  0  0  0  0
 16 22  1  0  0  0  0
 17 23  2  0  0  0  0
 17 24  1  0  0  0  0
 18 25  1  0  0  0  0
 18 26  2  0  0  0  0
 19 25  1  0  0  0  0
 20 25  1  0  0  0  0
 21 27  1  0  0  0  0
 21 28  1  0  0  0  0
 21 29  1  0  0  0  0
 22 30  1  0  0  0  0
 22 31  1  0  0  0  0
 22 32  1  0  0  0  0
  1 33  1  0  0  0  0
  2 34  1  0  0  0  0
  3 35  1  0  0  0  0
  4 36  1  0  0  0  0
  5 37  1  0  0  0  0
  6 38  1  0  0  0  0
  7 39  1  0  0  0  0
  8 40  1  0  0  0  0
  9 41  1  0  0  0  0
 10 42  1  0  0  0  0
 19 43  1  0  0  0  0
 19 44  1  0  0  0  0
 19 45  1  0  0  0  0
 20 46  1  0  0  0  0
 20 47  1  0  0  0  0
 24 48  1  0  0  0  0
 24 49  1  0  0  0  0
M  END
> <SMILES>
CN(Cc1ccc(cc1)C(F)(F)F)C(=O)c1cnc(c(c1)-c1ccc(cc1)C(F)(F)F)N

> <FORMATTED_ID>
H3D-002612

> <MOLFORMULA>
C22H17F6N3O

> <Exact Mass>
453.13

> <XLogP>
5.85

> <TPSA_NOPS>
59.2

> <s_m_source_file>
ligprep_h3d.sdf

> <i_m_source_file_index>
4030

> <i_lp_mmshare_version>
55123

> <i_f3d_flags>
0

> <s_epik_input>
W2NIXTFbY0hdYyhDKEYpKEYpRilbY0hdW2NIXWMxW0NIMl1OKFtDSDNdKUMoPU8pYzJbY0hdbmMoW05IMl0pYyhbY0hdMiktYzNbY0hdW2NIXWMoQyhGKShGKUYpW2NIXVtjSF0z

> <s_epik_cmdline>
J2VwaWtfcHl0aG9uJywgJy1waHQnLCAnMC41JywgJy1waCcsICc3LjUnLCAnLXRuJywgJzgnLCAnLW1hJywgJzUwMCcsICctaW1hZScsICc8aW5maWxlLm1hZT4nLCAnLW9tYWUnLCAnPG91dGZpbGUubWFlPic=

> <r_lp_tautomer_probability>
1

> <r_epik_Ionization_Penalty>
0.000629178

> <r_epik_Ionization_Penalty_Charging>
0

> <r_epik_Ionization_Penalty_Neutral>
0.000629178

> <r_epik_State_Penalty>
-0

> <r_epik_Charging_Adjusted_Penalty>
0

> <i_epik_Tot_Q>
0

> <i_epik_Tot_abs_Q>
0

> <s_lp_Force_Field>
S-OPLS

> <r_lp_Energy>
47.3522

> <b_lp_Chiralities_Consistent>
1

> <s_lp_Variant>
ligprep_h3d.sdf:4030-1

> <ROCS_ShapeQuery>
_7L13

> <ROCS_TanimotoCombo>
0.746 

> <ROCS_ShapeTanimoto>
0.677 

> <ROCS_ColorTanimoto>
0.070 

> <ROCS_RefTversky>
0.766 

> <ROCS_RefColorTversky>
0.117 

> <ROCS_RefTverskyCombo>
0.883 

> <ROCS_FitTversky>
0.854 

> <ROCS_FitColorTversky>
0.146 

> <ROCS_FitTverskyCombo>
1.000 

> <ROCS_ColorScore>
-1.040

> <ROCS_Overlap>
1264.172

> <ROCS_Rank>
617                 

$$$$
ligprep_h3d.sdf:890_1810
  -OEChem-08212117123D

 56 60  0     1  0  0  0  0  0999 V2000
  -20.8855   -5.0522  -29.5043 C   0  0  0  0  0  0  0  0  0  0  0  0
  -21.7112   -4.3215  -30.3612 C   0  0  0  0  0  0  0  0  0  0  0  0
  -21.0160   -4.8628  -28.1075 C   0  0  0  0  0  0  0  0  0  0  0  0
  -21.9823   -3.9952  -27.5458 C   0  0  0  0  0  0  0  0  0  0  0  0
  -22.6217   -3.4479  -29.8084 C   0  0  0  0  0  0  0  0  0  0  0  0
  -22.7874   -3.2490  -28.4376 C   0  0  0  0  0  0  0  0  0  0  0  0
  -21.9131   -4.1834  -31.7471 C   0  0  0  0  0  0  0  0  0  0  0  0
  -18.8962   -3.6957  -26.2023 C   0  0  0  0  0  0  0  0  0  0  0  0
  -19.0893   -5.9596  -25.0354 C   0  0  0  0  0  0  0  0  0  0  0  0
  -16.9639   -4.9142  -25.7807 C   0  0  0  0  0  0  0  0  0  0  0  0
  -20.1095   -5.6609  -27.2093 C   0  0  0  0  0  0  0  0  0  0  0  0
  -23.4028   -3.5214  -25.5684 C   0  0  0  0  0  0  0  0  0  0  0  0
  -21.1485   -4.5163  -25.2184 C   0  0  2  0  0  0  0  0  0  0  0  0
  -23.1943   -2.6936  -24.3018 C   0  0  1  0  0  0  0  0  0  0  0  0
  -21.0319   -3.6013  -23.9599 C   0  0  2  0  0  0  0  0  0  0  0  0
  -19.7936   -4.9164  -25.8902 C   0  0  2  0  0  0  0  0  0  0  0  0
  -24.5157   -2.4460  -23.5860 C   0  0  0  0  0  0  0  0  0  0  0  0
  -20.1901   -4.1591  -22.8194 C   0  0  0  0  0  0  0  0  0  0  0  0
  -20.7988   -6.9011  -33.8338 C   0  0  0  0  0  0  0  0  0  0  0  0
  -19.9174   -6.2625  -34.8979 C   0  0  0  0  0  0  0  0  0  0  0  0
  -20.7878   -6.1313  -32.5187 C   0  0  0  0  0  0  0  0  0  0  0  0
  -19.2670   -9.3425  -35.8891 N   0  5  0  0  0  0  0  0  0  0  0  0
  -22.8677   -3.2932  -32.0342 N   0  0  0  0  0  0  0  0  0  0  0  0
  -17.6041   -3.9401  -26.4274 N   0  5  0  0  0  0  0  0  0  0  0  0
  -19.9501   -7.0690  -36.1189 N   0  0  0  0  0  0  0  0  0  0  0  0
  -19.5930   -8.2546  -35.9952 N   0  3  0  0  0  0  0  0  0  0  0  0
  -17.7147   -5.8436  -25.0650 N   0  0  0  0  0  0  0  0  0  0  0  0
  -22.0952   -3.8511  -26.1591 N   0  0  1  0  0  0  0  0  0  0  0  0
  -19.3909   -2.5783  -26.3519 O   0  0  0  0  0  0  0  0  0  0  0  0
  -19.6701   -6.8636  -24.4385 O   0  0  0  0  0  0  0  0  0  0  0  0
  -15.7363   -5.0386  -25.8029 O   0  0  0  0  0  0  0  0  0  0  0  0
  -23.3124   -2.8260  -30.8029 O   0  0  0  0  0  0  0  0  0  0  0  0
  -22.3406   -3.3967  -23.4011 O   0  0  0  0  0  0  0  0  0  0  0  0
  -21.2866   -4.8049  -32.7551 O   0  0  0  0  0  0  0  0  0  0  0  0
  -23.6299   -2.2884  -28.0395 F   0  0  0  0  0  0  0  0  0  0  0  0
  -20.1503   -5.7447  -29.9042 H   0  0  0  0  0  0  0  0  0  0  0  0
  -20.6044   -6.6209  -27.0067 H   0  0  0  0  0  0  0  0  0  0  0  0
  -19.1783   -5.8988  -27.7410 H   0  0  0  0  0  0  0  0  0  0  0  0
  -23.8979   -4.4691  -25.3174 H   0  0  0  0  0  0  0  0  0  0  0  0
  -24.0928   -2.9835  -26.2152 H   0  0  0  0  0  0  0  0  0  0  0  0
  -21.6577   -5.4384  -24.8999 H   0  0  0  0  0  0  0  0  0  0  0  0
  -22.7439   -1.7228  -24.5465 H   0  0  0  0  0  0  0  0  0  0  0  0
  -20.6228   -2.6185  -24.2210 H   0  0  0  0  0  0  0  0  0  0  0  0
  -24.9854   -3.3960  -23.3308 H   0  0  0  0  0  0  0  0  0  0  0  0
  -25.1888   -1.8807  -24.2307 H   0  0  0  0  0  0  0  0  0  0  0  0
  -24.3436   -1.8794  -22.6707 H   0  0  0  0  0  0  0  0  0  0  0  0
  -20.5632   -5.1405  -22.5259 H   0  0  0  0  0  0  0  0  0  0  0  0
  -20.2378   -3.4910  -21.9594 H   0  0  0  0  0  0  0  0  0  0  0  0
  -19.1513   -4.2556  -23.1353 H   0  0  0  0  0  0  0  0  0  0  0  0
  -20.4576   -7.9270  -33.6475 H   0  0  0  0  0  0  0  0  0  0  0  0
  -21.8313   -6.9893  -34.1948 H   0  0  0  0  0  0  0  0  0  0  0  0
  -20.2491   -5.2434  -35.1214 H   0  0  0  0  0  0  0  0  0  0  0  0
  -18.8843   -6.2087  -34.5394 H   0  0  0  0  0  0  0  0  0  0  0  0
  -21.4306   -6.6168  -31.7774 H   0  0  0  0  0  0  0  0  0  0  0  0
  -19.7743   -6.0511  -32.1140 H   0  0  0  0  0  0  0  0  0  0  0  0
  -17.1926   -6.5096  -24.5026 H   0  0  0  0  0  0  0  0  0  0  0  0
  1  2  2  0  0  0  0
  1  3  1  0  0  0  0
  2  5  1  0  0  0  0
  2  7  1  0  0  0  0
  3  4  2  0  0  0  0
  3 11  1  0  0  0  0
  4  6  1  0  0  0  0
  4 28  1  0  0  0  0
  5  6  2  0  0  0  0
  5 32  1  0  0  0  0
  6 35  1  0  0  0  0
  7 23  2  0  0  0  0
  7 34  1  0  0  0  0
  8 16  1  0  0  0  0
  8 24  1  0  0  0  0
  8 29  2  0  0  0  0
  9 16  1  0  0  0  0
  9 27  1  0  0  0  0
  9 30  2  0  0  0  0
 10 24  1  0  0  0  0
 10 27  1  0  0  0  0
 10 31  2  0  0  0  0
 11 16  1  0  0  0  0
 12 14  1  0  0  0  0
 12 28  1  0  0  0  0
 13 15  1  0  0  0  0
 13 16  1  0  0  0  0
 13 28  1  0  0  0  0
 14 17  1  0  0  0  0
 14 33  1  0  0  0  0
 15 18  1  0  0  0  0
 15 33  1  0  0  0  0
 19 20  1  0  0  0  0
 19 21  1  0  0  0  0
 20 25  1  0  0  0  0
 21 34  1  0  0  0  0
 22 26  2  0  0  0  0
 23 32  1  0  0  0  0
 25 26  2  0  0  0  0
  1 36  1  0  0  0  0
 11 37  1  0  0  0  0
 11 38  1  0  0  0  0
 12 39  1  0  0  0  0
 12 40  1  0  0  0  0
 13 41  1  0  0  0  0
 14 42  1  0  0  0  0
 15 43  1  0  0  0  0
 17 44  1  0  0  0  0
 17 45  1  0  0  0  0
 17 46  1  0  0  0  0
 18 47  1  0  0  0  0
 18 48  1  0  0  0  0
 18 49  1  0  0  0  0
 19 50  1  0  0  0  0
 19 51  1  0  0  0  0
 20 52  1  0  0  0  0
 20 53  1  0  0  0  0
 21 54  1  0  0  0  0
 21 55  1  0  0  0  0
 27 56  1  0  0  0  0
M  CHG  3  22  -1  24  -1  26   1
M  END
> <SMILES>
C[C@@H]1CN2[C@H]([C@H](C)O1)C1(Cc3cc4c(noc4c(c32)F)OCCCN=[N+]=[N-])C(=O)NC(=O)NC1=O

> <FORMATTED_ID>
H3D-005789

> <MOLFORMULA>
C21H22FN7O6

> <Exact Mass>
487.16

> <XLogP>
0.84

> <TPSA_NOPS>
172.1

> <s_m_source_file>
ligprep_h3d.sdf

> <i_m_source_file_index>
890

> <i_lp_mmshare_version>
55123

> <i_f3d_flags>
0

> <s_epik_input>
Tz1DMVtOSF1DKD1PKVtOSF1DKD1PKUMxMltDQEBIXTNOKFtDSDJdW0NAQEhdKFtDSDNdKU9bQ0BIXTNbQ0gzXSljNGMoW0NIMl0yKVtjSF1jNWMoYzRGKW9uYzVPW0NIMl1bQ0gyXVtDSDJdTj1bTitdPVtOLV0=

> <s_epik_cmdline>
J2VwaWtfcHl0aG9uJywgJy1waHQnLCAnMC41JywgJy1waCcsICc3LjUnLCAnLXRuJywgJzgnLCAnLW1hJywgJzUwMCcsICctaW1hZScsICc8aW5maWxlLm1hZT4nLCAnLW9tYWUnLCAnPG91dGZpbGUubWFlPic=

> <r_lp_tautomer_probability>
1

> <r_epik_Ionization_Penalty>
0.45539

> <r_epik_Ionization_Penalty_Charging>
0.455373

> <r_epik_Ionization_Penalty_Neutral>
1.6609e-05

> <r_epik_State_Penalty>
0.458483

> <r_epik_Charging_Adjusted_Penalty>
0.913857

> <i_epik_Tot_Q>
-1

> <i_epik_Tot_abs_Q>
3

> <s_lp_Force_Field>
S-OPLS

> <r_lp_Energy>
50.2237

> <b_lp_Chiralities_Consistent>
1

> <s_lp_Variant>
ligprep_h3d.sdf:890-2

> <ROCS_ShapeQuery>
_7L13

> <ROCS_TanimotoCombo>
0.757 

> <ROCS_ShapeTanimoto>
0.626 

> <ROCS_ColorTanimoto>
0.132 

> <ROCS_RefTversky>
0.766 

> <ROCS_RefColorTversky>
0.290 

> <ROCS_RefTverskyCombo>
1.055 

> <ROCS_FitTversky>
0.774 

> <ROCS_FitColorTversky>
0.194 

> <ROCS_FitTverskyCombo>
0.968 

> <ROCS_ColorScore>
-2.681

> <ROCS_Overlap>
1270.630

> <ROCS_Rank>
618                 

$$$$
ligprep_h3d.sdf:810_27
  -OEChem-08212117123D

 57 62  0     1  0  0  0  0  0999 V2000
  -20.9589   -5.1387  -29.5026 C   0  0  0  0  0  0  0  0  0  0  0  0
  -21.7370   -4.3869  -30.3850 C   0  0  0  0  0  0  0  0  0  0  0  0
  -21.0762   -4.8947  -28.1124 C   0  0  0  0  0  0  0  0  0  0  0  0
  -21.9815   -3.9466  -27.5807 C   0  0  0  0  0  0  0  0  0  0  0  0
  -22.5913   -3.4408  -29.8630 C   0  0  0  0  0  0  0  0  0  0  0  0
  -22.7430   -3.1862  -28.4997 C   0  0  0  0  0  0  0  0  0  0  0  0
  -21.9316   -4.2839  -31.7750 C   0  0  0  0  0  0  0  0  0  0  0  0
  -18.9197   -3.8157  -26.1958 C   0  0  0  0  0  0  0  0  0  0  0  0
  -19.2519   -6.0807  -25.0102 C   0  0  0  0  0  0  0  0  0  0  0  0
  -16.9951   -5.3095  -25.7102 C   0  0  0  0  0  0  0  0  0  0  0  0
  -20.2071   -5.7093  -27.1918 C   0  0  0  0  0  0  0  0  0  0  0  0
  -20.0159   -6.8745  -33.5678 C   0  0  0  0  0  0  0  0  0  0  0  0
  -20.2616   -6.0877  -32.2825 C   0  0  0  0  0  0  0  0  0  0  0  0
  -23.0550   -2.8020  -25.6518 C   0  0  0  0  0  0  0  0  0  0  0  0
  -21.3926   -4.9881  -34.1220 C   0  0  0  0  0  0  0  0  0  0  0  0
  -21.2124   -4.4724  -25.2320 C   0  0  2  0  0  0  0  0  0  0  0  0
  -23.4274   -3.1122  -24.1993 C   0  0  1  0  0  0  0  0  0  0  0  0
  -21.0531   -3.5342  -24.0003 C   0  0  2  0  0  0  0  0  0  0  0  0
  -19.8802   -4.9713  -25.8696 C   0  0  0  0  0  0  0  0  0  0  0  0
  -20.2471   -5.8376  -34.6449 C   0  0  0  0  0  0  0  0  0  0  0  0
  -24.4109   -4.2748  -24.0796 C   0  0  0  0  0  0  0  0  0  0  0  0
  -20.0992   -4.0112  -22.9116 C   0  0  0  0  0  0  0  0  0  0  0  0
  -22.8321   -3.3489  -32.0928 N   0  0  0  0  0  0  0  0  0  0  0  0
  -17.5756   -4.1535  -26.2118 N   0  0  0  0  0  0  0  0  0  0  0  0
  -17.8742   -6.1984  -25.1081 N   0  0  0  0  0  0  0  0  0  0  0  0
  -22.0952   -3.7691  -26.1997 N   0  0  3  0  0  0  0  0  0  0  0  0
  -21.2446   -5.0767  -32.6699 N   0  0  0  0  0  0  0  0  0  0  0  0
  -19.3014   -2.6823  -26.4873 O   0  0  0  0  0  0  0  0  0  0  0  0
  -19.9227   -6.8731  -24.3473 O   0  0  0  0  0  0  0  0  0  0  0  0
  -15.7809   -5.5133  -25.7593 O   0  0  0  0  0  0  0  0  0  0  0  0
  -23.2468   -2.8146  -30.8784 O   0  0  0  0  0  0  0  0  0  0  0  0
  -22.3166   -3.3679  -23.3451 O   0  0  0  0  0  0  0  0  0  0  0  0
  -23.5274   -2.1638  -28.1390 F   0  0  0  0  0  0  0  0  0  0  0  0
  -19.1400   -5.0771  -34.8078 F   0  0  0  0  0  0  0  0  0  0  0  0
  -20.5373   -6.4052  -35.8295 F   0  0  0  0  0  0  0  0  0  0  0  0
  -20.2694   -5.8908  -29.8756 H   0  0  0  0  0  0  0  0  0  0  0  0
  -20.7338   -6.6526  -26.9917 H   0  0  0  0  0  0  0  0  0  0  0  0
  -19.2743   -5.9740  -27.7084 H   0  0  0  0  0  0  0  0  0  0  0  0
  -19.0044   -7.2893  -33.6011 H   0  0  0  0  0  0  0  0  0  0  0  0
  -20.7358   -7.6951  -33.6638 H   0  0  0  0  0  0  0  0  0  0  0  0
  -20.6315   -6.7381  -31.4816 H   0  0  0  0  0  0  0  0  0  0  0  0
  -19.3401   -5.5982  -31.9443 H   0  0  0  0  0  0  0  0  0  0  0  0
  -23.9652   -2.8474  -26.2850 H   0  0  0  0  0  0  0  0  0  0  0  0
  -22.7451   -1.7465  -25.6949 H   0  0  0  0  0  0  0  0  0  0  0  0
  -21.3111   -3.9534  -34.4728 H   0  0  0  0  0  0  0  0  0  0  0  0
  -22.3635   -5.3974  -34.4250 H   0  0  0  0  0  0  0  0  0  0  0  0
  -21.7896   -5.3506  -24.9036 H   0  0  0  0  0  0  0  0  0  0  0  0
  -23.9765   -2.2043  -23.7685 H   0  0  0  0  0  0  0  0  0  0  0  0
  -20.7089   -2.5315  -24.3136 H   0  0  0  0  0  0  0  0  0  0  0  0
  -23.9603   -5.1866  -24.4720 H   0  0  0  0  0  0  0  0  0  0  0  0
  -25.3170   -4.0567  -24.6450 H   0  0  0  0  0  0  0  0  0  0  0  0
  -24.6760   -4.4332  -23.0340 H   0  0  0  0  0  0  0  0  0  0  0  0
  -20.3946   -5.0014  -22.5648 H   0  0  0  0  0  0  0  0  0  0  0  0
  -20.1203   -3.3203  -22.0688 H   0  0  0  0  0  0  0  0  0  0  0  0
  -19.0829   -4.0617  -23.3025 H   0  0  0  0  0  0  0  0  0  0  0  0
  -16.9460   -3.4803  -26.6379 H   0  0  0  0  0  0  0  0  0  0  0  0
  -17.4556   -6.9982  -24.6422 H   0  0  0  0  0  0  0  0  0  0  0  0
  1  2  2  0  0  0  0
  1  3  1  0  0  0  0
  2  5  1  0  0  0  0
  2  7  1  0  0  0  0
  3  4  2  0  0  0  0
  3 11  1  0  0  0  0
  4  6  1  0  0  0  0
  4 26  1  0  0  0  0
  5  6  2  0  0  0  0
  5 31  1  0  0  0  0
  6 33  1  0  0  0  0
  7 23  2  0  0  0  0
  7 27  1  0  0  0  0
  8 19  1  0  0  0  0
  8 24  1  0  0  0  0
  8 28  2  0  0  0  0
  9 19  1  0  0  0  0
  9 25  1  0  0  0  0
  9 29  2  0  0  0  0
 10 24  1  0  0  0  0
 10 25  1  0  0  0  0
 10 30  2  0  0  0  0
 11 19  1  0  0  0  0
 12 13  1  0  0  0  0
 12 20  1  0  0  0  0
 13 27  1  0  0  0  0
 14 17  1  0  0  0  0
 14 26  1  0  0  0  0
 15 20  1  0  0  0  0
 15 27  1  0  0  0  0
 16 18  1  0  0  0  0
 16 19  1  0  0  0  0
 16 26  1  0  0  0  0
 17 21  1  0  0  0  0
 17 32  1  0  0  0  0
 18 22  1  0  0  0  0
 18 32  1  0  0  0  0
 20 34  1  0  0  0  0
 20 35  1  0  0  0  0
 23 31  1  0  0  0  0
  1 36  1  0  0  0  0
 11 37  1  0  0  0  0
 11 38  1  0  0  0  0
 12 39  1  0  0  0  0
 12 40  1  0  0  0  0
 13 41  1  0  0  0  0
 13 42  1  0  0  0  0
 14 43  1  0  0  0  0
 14 44  1  0  0  0  0
 15 45  1  0  0  0  0
 15 46  1  0  0  0  0
 16 47  1  0  0  0  0
 17 48  1  0  0  0  0
 18 49  1  0  0  0  0
 21 50  1  0  0  0  0
 21 51  1  0  0  0  0
 21 52  1  0  0  0  0
 22 53  1  0  0  0  0
 22 54  1  0  0  0  0
 22 55  1  0  0  0  0
 24 56  1  0  0  0  0
 25 57  1  0  0  0  0
M  END
> <SMILES>
C[C@@H]1CN2[C@H]([C@H](C)O1)C1(Cc3cc4c(noc4c(c32)F)N2CCC(F)(F)C2)C(=O)NC(=O)NC1=O

> <FORMATTED_ID>
H3D-005488

> <MOLFORMULA>
C22H22F3N5O5

> <Exact Mass>
493.16

> <XLogP>
1.24

> <TPSA_NOPS>
117.3

> <s_m_source_file>
ligprep_h3d.sdf

> <i_m_source_file_index>
810

> <i_lp_mmshare_version>
55123

> <i_f3d_flags>
0

> <s_epik_input>
Tz1DMVtOSF1DKD1PKVtOSF1DKD1PKUMxMltDQEBIXTNOKFtDSDJdW0NAQEhdKFtDSDNdKU9bQ0BIXTNbQ0gzXSljNGMoW0NIMl0yKVtjSF1jNWMoYzRGKW9uYzVOKFtDSDJdNilbQ0gyXVtDSDJdQzYoRilG

> <s_epik_cmdline>
J2VwaWtfcHl0aG9uJywgJy1waHQnLCAnMC41JywgJy1waCcsICc3LjUnLCAnLXRuJywgJzgnLCAnLW1hJywgJzUwMCcsICctaW1hZScsICc8aW5maWxlLm1hZT4nLCAnLW9tYWUnLCAnPG91dGZpbGUubWFlPic=

> <r_lp_tautomer_probability>
1

> <r_epik_Ionization_Penalty>
0.369125

> <r_epik_Ionization_Penalty_Charging>
0

> <r_epik_Ionization_Penalty_Neutral>
0.369125

> <r_epik_State_Penalty>
0.366447

> <r_epik_Charging_Adjusted_Penalty>
0.366447

> <i_epik_Tot_Q>
0

> <i_epik_Tot_abs_Q>
0

> <s_lp_Force_Field>
S-OPLS

> <r_lp_Energy>
44.7255

> <b_lp_Chiralities_Consistent>
1

> <s_lp_Variant>
ligprep_h3d.sdf:810-1

> <ROCS_ShapeQuery>
_7L13

> <ROCS_TanimotoCombo>
0.762 

> <ROCS_ShapeTanimoto>
0.618 

> <ROCS_ColorTanimoto>
0.144 

> <ROCS_RefTversky>
0.766 

> <ROCS_RefColorTversky>
0.301 

> <ROCS_RefTverskyCombo>
1.066 

> <ROCS_FitTversky>
0.762 

> <ROCS_FitColorTversky>
0.216 

> <ROCS_FitTverskyCombo>
0.978 

> <ROCS_ColorScore>
-2.769

> <ROCS_Overlap>
1271.674

> <ROCS_Rank>
619                 

$$$$
ligprep_h3d.sdf:512_40
  -OEChem-08212117123D

 58 63  0     1  0  0  0  0  0999 V2000
  -20.3319   -8.1159  -34.3445 C   0  0  0  0  0  0  0  0  0  0  0  0
  -20.9343   -5.0890  -29.5200 C   0  0  0  0  0  0  0  0  0  0  0  0
  -21.7307   -4.3477  -30.3950 C   0  0  0  0  0  0  0  0  0  0  0  0
  -21.0548   -4.8594  -28.1277 C   0  0  0  0  0  0  0  0  0  0  0  0
  -21.9805   -3.9365  -27.5867 C   0  0  0  0  0  0  0  0  0  0  0  0
  -22.6054   -3.4257  -29.8639 C   0  0  0  0  0  0  0  0  0  0  0  0
  -22.7606   -3.1860  -28.4983 C   0  0  0  0  0  0  0  0  0  0  0  0
  -21.9298   -4.2376  -31.7838 C   0  0  0  0  0  0  0  0  0  0  0  0
  -18.9202   -3.7476  -26.2053 C   0  0  0  0  0  0  0  0  0  0  0  0
  -19.1990   -6.0294  -25.0382 C   0  0  0  0  0  0  0  0  0  0  0  0
  -16.9614   -5.2013  -25.7350 C   0  0  0  0  0  0  0  0  0  0  0  0
  -20.1660   -5.6616  -27.2152 C   0  0  0  0  0  0  0  0  0  0  0  0
  -20.0547   -5.6593  -34.6215 C   0  0  0  0  0  0  0  0  0  0  0  0
  -20.3596   -4.4602  -33.7261 C   0  0  0  0  0  0  0  0  0  0  0  0
  -21.2643   -6.4676  -32.7233 C   0  0  0  0  0  0  0  0  0  0  0  0
  -23.0766   -2.8326  -25.6468 C   0  0  0  0  0  0  0  0  0  0  0  0
  -20.1101   -6.8406  -33.6591 C   0  0  1  0  0  0  0  0  0  0  0  0
  -21.1958   -4.4642  -25.2437 C   0  0  2  0  0  0  0  0  0  0  0  0
  -23.4395   -3.1633  -24.1964 C   0  0  1  0  0  0  0  0  0  0  0  0
  -21.0558   -3.5329  -24.0044 C   0  0  2  0  0  0  0  0  0  0  0  0
  -19.8537   -4.9273  -25.8874 C   0  0  0  0  0  0  0  0  0  0  0  0
  -24.3961   -4.3489  -24.0850 C   0  0  0  0  0  0  0  0  0  0  0  0
  -20.0896   -3.9971  -22.9211 C   0  0  0  0  0  0  0  0  0  0  0  0
  -20.5077   -9.1261  -34.8874 N   0  0  0  0  0  0  0  0  0  0  0  0
  -22.8519   -3.3207  -32.0925 N   0  0  0  0  0  0  0  0  0  0  0  0
  -17.5689   -4.0546  -26.2261 N   0  0  0  0  0  0  0  0  0  0  0  0
  -17.8192   -6.1149  -25.1391 N   0  0  0  0  0  0  0  0  0  0  0  0
  -22.0960   -3.7731  -26.2042 N   0  0  3  0  0  0  0  0  0  0  0  0
  -21.2266   -5.0071  -32.6862 N   0  0  0  0  0  0  0  0  0  0  0  0
  -19.3281   -2.6208  -26.4867 O   0  0  0  0  0  0  0  0  0  0  0  0
  -19.8505   -6.8422  -24.3809 O   0  0  0  0  0  0  0  0  0  0  0  0
  -15.7430   -5.3770  -25.7875 O   0  0  0  0  0  0  0  0  0  0  0  0
  -23.2766   -2.8061  -30.8731 O   0  0  0  0  0  0  0  0  0  0  0  0
  -22.3218   -3.4008  -23.3461 O   0  0  0  0  0  0  0  0  0  0  0  0
  -23.5675   -2.1847  -28.1279 F   0  0  0  0  0  0  0  0  0  0  0  0
  -20.2285   -5.8222  -29.9003 H   0  0  0  0  0  0  0  0  0  0  0  0
  -20.6708   -6.6182  -27.0222 H   0  0  0  0  0  0  0  0  0  0  0  0
  -19.2282   -5.9007  -27.7353 H   0  0  0  0  0  0  0  0  0  0  0  0
  -20.8197   -5.7464  -35.4039 H   0  0  0  0  0  0  0  0  0  0  0  0
  -19.0809   -5.5679  -35.1134 H   0  0  0  0  0  0  0  0  0  0  0  0
  -19.4406   -4.0699  -33.2725 H   0  0  0  0  0  0  0  0  0  0  0  0
  -20.8445   -3.6561  -34.2912 H   0  0  0  0  0  0  0  0  0  0  0  0
  -22.2362   -6.8007  -33.1108 H   0  0  0  0  0  0  0  0  0  0  0  0
  -21.1225   -6.9036  -31.7267 H   0  0  0  0  0  0  0  0  0  0  0  0
  -23.9866   -2.8934  -26.2790 H   0  0  0  0  0  0  0  0  0  0  0  0
  -22.7908   -1.7701  -25.6815 H   0  0  0  0  0  0  0  0  0  0  0  0
  -19.1765   -6.8840  -33.0834 H   0  0  0  0  0  0  0  0  0  0  0  0
  -21.7525   -5.3580  -24.9218 H   0  0  0  0  0  0  0  0  0  0  0  0
  -24.0083   -2.2717  -23.7572 H   0  0  0  0  0  0  0  0  0  0  0  0
  -20.7351   -2.5201  -24.3099 H   0  0  0  0  0  0  0  0  0  0  0  0
  -23.9256   -5.2470  -24.4857 H   0  0  0  0  0  0  0  0  0  0  0  0
  -25.3079   -4.1467  -24.6473 H   0  0  0  0  0  0  0  0  0  0  0  0
  -24.6558   -4.5219  -23.0404 H   0  0  0  0  0  0  0  0  0  0  0  0
  -20.3619   -4.9967  -22.5822 H   0  0  0  0  0  0  0  0  0  0  0  0
  -20.1250   -3.3140  -22.0725 H   0  0  0  0  0  0  0  0  0  0  0  0
  -19.0731   -4.0213  -23.3139 H   0  0  0  0  0  0  0  0  0  0  0  0
  -16.9554   -3.3638  -26.6475 H   0  0  0  0  0  0  0  0  0  0  0  0
  -17.3817   -6.9089  -24.6804 H   0  0  0  0  0  0  0  0  0  0  0  0
  1 17  1  0  0  0  0
  1 24  3  0  0  0  0
  2  3  2  0  0  0  0
  2  4  1  0  0  0  0
  3  6  1  0  0  0  0
  3  8  1  0  0  0  0
  4  5  2  0  0  0  0
  4 12  1  0  0  0  0
  5  7  1  0  0  0  0
  5 28  1  0  0  0  0
  6  7  2  0  0  0  0
  6 33  1  0  0  0  0
  7 35  1  0  0  0  0
  8 25  2  0  0  0  0
  8 29  1  0  0  0  0
  9 21  1  0  0  0  0
  9 26  1  0  0  0  0
  9 30  2  0  0  0  0
 10 21  1  0  0  0  0
 10 27  1  0  0  0  0
 10 31  2  0  0  0  0
 11 26  1  0  0  0  0
 11 27  1  0  0  0  0
 11 32  2  0  0  0  0
 12 21  1  0  0  0  0
 13 14  1  0  0  0  0
 13 17  1  0  0  0  0
 14 29  1  0  0  0  0
 15 17  1  0  0  0  0
 15 29  1  0  0  0  0
 16 19  1  0  0  0  0
 16 28  1  0  0  0  0
 18 20  1  0  0  0  0
 18 21  1  0  0  0  0
 18 28  1  0  0  0  0
 19 22  1  0  0  0  0
 19 34  1  0  0  0  0
 20 23  1  0  0  0  0
 20 34  1  0  0  0  0
 25 33  1  0  0  0  0
  2 36  1  0  0  0  0
 12 37  1  0  0  0  0
 12 38  1  0  0  0  0
 13 39  1  0  0  0  0
 13 40  1  0  0  0  0
 14 41  1  0  0  0  0
 14 42  1  0  0  0  0
 15 43  1  0  0  0  0
 15 44  1  0  0  0  0
 16 45  1  0  0  0  0
 16 46  1  0  0  0  0
 17 47  1  0  0  0  0
 18 48  1  0  0  0  0
 19 49  1  0  0  0  0
 20 50  1  0  0  0  0
 22 51  1  0  0  0  0
 22 52  1  0  0  0  0
 22 53  1  0  0  0  0
 23 54  1  0  0  0  0
 23 55  1  0  0  0  0
 23 56  1  0  0  0  0
 26 57  1  0  0  0  0
 27 58  1  0  0  0  0
M  END
> <SMILES>
CC1CN2C(C(C)O1)C1(Cc3cc4c(noc4c(c32)F)N2CC[C@@H](C2)C#N)C(=O)NC(=O)NC1=O

> <FORMATTED_ID>
H3D-004140

> <MOLFORMULA>
C23H23FN6O5

> <Exact Mass>
482.17

> <XLogP>
0.41

> <TPSA_NOPS>
141.1

> <s_m_source_file>
ligprep_h3d.sdf

> <i_m_source_file_index>
512

> <i_lp_mmshare_version>
55123

> <i_f3d_flags>
0

> <s_epik_input>
Tz1DMVtOSF1DKD1PKVtOSF1DKD1PKUMxMltDQEBIXTNOKFtDSDJdW0NAQEhdKFtDSDNdKU9bQ0BIXTNbQ0gzXSljNGMoW0NIMl0yKVtjSF1jNWMoYzRGKW9uYzVONltDSDJdW0NIMl1bQ0BASF0oW0NIMl02KUMjTg==

> <s_epik_cmdline>
J2VwaWtfcHl0aG9uJywgJy1waHQnLCAnMC41JywgJy1waCcsICc3LjUnLCAnLXRuJywgJzgnLCAnLW1hJywgJzUwMCcsICctaW1hZScsICc8aW5maWxlLm1hZT4nLCAnLW9tYWUnLCAnPG91dGZpbGUubWFlPic=

> <r_lp_tautomer_probability>
1

> <r_epik_Ionization_Penalty>
0.369125

> <r_epik_Ionization_Penalty_Charging>
0

> <r_epik_Ionization_Penalty_Neutral>
0.369125

> <r_epik_State_Penalty>
0.366447

> <r_epik_Charging_Adjusted_Penalty>
0.366447

> <i_epik_Tot_Q>
0

> <i_epik_Tot_abs_Q>
0

> <s_lp_Force_Field>
S-OPLS

> <r_lp_Energy>
47.6774

> <b_lp_Chiralities_Consistent>
1

> <s_lp_Variant>
ligprep_h3d.sdf:512-1

> <ROCS_ShapeQuery>
_7L13

> <ROCS_TanimotoCombo>
0.758 

> <ROCS_ShapeTanimoto>
0.622 

> <ROCS_ColorTanimoto>
0.136 

> <ROCS_RefTversky>
0.766 

> <ROCS_RefColorTversky>
0.299 

> <ROCS_RefTverskyCombo>
1.064 

> <ROCS_FitTversky>
0.768 

> <ROCS_FitColorTversky>
0.200 

> <ROCS_FitTverskyCombo>
0.969 

> <ROCS_ColorScore>
-2.762

> <ROCS_Overlap>
1271.037

> <ROCS_Rank>
620                 

$$$$
ligprep_h3d.sdf:995_1994
  -OEChem-08212117123D

 73 77  0     1  0  0  0  0  0999 V2000
  -20.3898   -3.9358  -32.2848 C   0  0  0  0  0  0  0  0  0  0  0  0
  -20.6249   -6.3249  -32.0136 C   0  0  0  0  0  0  0  0  0  0  0  0
  -19.8766   -4.1317  -33.5669 C   0  0  0  0  0  0  0  0  0  0  0  0
  -20.1117   -6.5209  -33.2958 C   0  0  0  0  0  0  0  0  0  0  0  0
  -16.7514   -5.4981  -26.6540 C   0  0  0  0  0  0  0  0  0  0  0  0
  -23.1899   -4.4774  -28.7244 C   0  0  0  0  0  0  0  0  0  0  0  0
  -20.7078   -4.3433  -25.3940 C   0  0  0  0  0  0  0  0  0  0  0  0
  -16.7630   -4.0988  -26.8079 C   0  0  0  0  0  0  0  0  0  0  0  0
  -20.9812   -4.5879  -27.7836 C   0  0  0  0  0  0  0  0  0  0  0  0
  -20.7640   -5.0324  -31.5081 C   0  0  0  0  0  0  0  0  0  0  0  0
  -21.2961   -4.8290  -30.1782 C   0  0  0  0  0  0  0  0  0  0  0  0
  -19.7376   -5.4243  -34.0724 C   0  0  0  0  0  0  0  0  0  0  0  0
  -22.6658   -4.6745  -30.0043 C   0  0  0  0  0  0  0  0  0  0  0  0
  -20.4538   -4.7861  -29.0710 C   0  0  0  0  0  0  0  0  0  0  0  0
  -22.3709   -4.4304  -27.5996 C   0  0  0  0  0  0  0  0  0  0  0  0
  -20.1563   -4.5404  -26.6517 C   0  0  0  0  0  0  0  0  0  0  0  0
  -22.0780   -4.1995  -25.3135 C   0  0  0  0  0  0  0  0  0  0  0  0
  -18.0777   -5.8457  -26.5736 C   0  0  0  0  0  0  0  0  0  0  0  0
  -18.7039   -8.7290  -37.5293 C   0  0  0  0  0  0  0  0  0  0  0  0
  -22.7197   -3.9918  -24.0267 C   0  0  0  0  0  0  0  0  0  0  0  0
  -18.5029   -7.3135  -37.0255 C   0  0  0  0  0  0  0  0  0  0  0  0
  -21.0650   -8.5948  -36.7164 C   0  0  0  0  0  0  0  0  0  0  0  0
  -20.8038   -7.1312  -36.4077 C   0  0  0  0  0  0  0  0  0  0  0  0
  -23.6154   -4.7110  -31.1595 C   0  0  0  0  0  0  0  0  0  0  0  0
  -18.9846   -4.9608  -29.3365 C   0  0  0  0  0  0  0  0  0  0  0  0
  -18.7155   -7.1666  -26.4080 C   0  0  0  0  0  0  0  0  0  0  0  0
  -20.2919  -10.5592  -38.0099 C   0  0  0  0  0  0  0  0  0  0  0  0
  -19.1849   -5.6353  -35.4523 C   0  0  0  0  0  0  0  0  0  0  0  0
  -24.8032   -4.3282  -22.6715 C   0  0  0  0  0  0  0  0  0  0  0  0
  -25.5938   -3.0340  -22.7315 C   0  0  0  0  0  0  0  0  0  0  0  0
  -17.9987   -3.5921  -26.8247 N   0  0  0  0  0  0  0  0  0  0  0  0
  -22.9090   -4.2389  -26.3802 N   0  0  0  0  0  0  0  0  0  0  0  0
  -18.7760   -4.6790  -26.6804 N   0  0  0  0  0  0  0  0  0  0  0  0
  -19.9984   -9.2363  -37.4770 N   0  0  0  0  0  0  0  0  0  0  0  0
  -19.4266   -6.9947  -35.9370 N   0  0  2  0  0  0  0  0  0  0  0  0
  -24.0251   -4.4774  -23.8802 N   0  0  0  0  0  0  0  0  0  0  0  0
  -17.7485   -9.3275  -38.0318 O   0  0  0  0  0  0  0  0  0  0  0  0
  -22.1269   -3.3881  -23.1140 O   0  0  0  0  0  0  0  0  0  0  0  0
  -26.4393   -3.0496  -23.8747 O   0  0  0  0  0  0  0  0  0  0  0  0
  -20.4915   -2.9220  -31.9046 H   0  0  0  0  0  0  0  0  0  0  0  0
  -20.9127   -7.1899  -31.4207 H   0  0  0  0  0  0  0  0  0  0  0  0
  -19.5866   -3.2716  -34.1645 H   0  0  0  0  0  0  0  0  0  0  0  0
  -20.0074   -7.5315  -33.6819 H   0  0  0  0  0  0  0  0  0  0  0  0
  -15.8991   -6.1603  -26.6084 H   0  0  0  0  0  0  0  0  0  0  0  0
  -24.2660   -4.3578  -28.6028 H   0  0  0  0  0  0  0  0  0  0  0  0
  -20.0911   -4.3024  -24.5004 H   0  0  0  0  0  0  0  0  0  0  0  0
  -15.9224   -3.4273  -26.9086 H   0  0  0  0  0  0  0  0  0  0  0  0
  -17.4702   -7.2436  -36.6625 H   0  0  0  0  0  0  0  0  0  0  0  0
  -18.6157   -6.6312  -37.8773 H   0  0  0  0  0  0  0  0  0  0  0  0
  -21.1716   -9.1618  -35.7833 H   0  0  0  0  0  0  0  0  0  0  0  0
  -22.0011   -8.6915  -37.2779 H   0  0  0  0  0  0  0  0  0  0  0  0
  -20.9901   -6.5123  -37.2954 H   0  0  0  0  0  0  0  0  0  0  0  0
  -21.5117   -6.8111  -35.6335 H   0  0  0  0  0  0  0  0  0  0  0  0
  -23.7541   -3.7034  -31.5662 H   0  0  0  0  0  0  0  0  0  0  0  0
  -23.2412   -5.3635  -31.9568 H   0  0  0  0  0  0  0  0  0  0  0  0
  -24.5921   -5.1045  -30.8544 H   0  0  0  0  0  0  0  0  0  0  0  0
  -18.7228   -6.0206  -29.2863 H   0  0  0  0  0  0  0  0  0  0  0  0
  -18.7216   -4.5740  -30.3249 H   0  0  0  0  0  0  0  0  0  0  0  0
  -18.3907   -4.4106  -28.6012 H   0  0  0  0  0  0  0  0  0  0  0  0
  -18.8546   -7.4096  -25.3419 H   0  0  0  0  0  0  0  0  0  0  0  0
  -19.7049   -7.2122  -26.8941 H   0  0  0  0  0  0  0  0  0  0  0  0
  -18.1161   -7.9750  -26.8607 H   0  0  0  0  0  0  0  0  0  0  0  0
  -20.1646  -11.3110  -37.2171 H   0  0  0  0  0  0  0  0  0  0  0  0
  -21.3288  -10.5850  -38.3763 H   0  0  0  0  0  0  0  0  0  0  0  0
  -19.6043  -10.7811  -38.8393 H   0  0  0  0  0  0  0  0  0  0  0  0
  -19.6424   -4.9377  -36.1623 H   0  0  0  0  0  0  0  0  0  0  0  0
  -18.1043   -5.4593  -35.4740 H   0  0  0  0  0  0  0  0  0  0  0  0
  -24.1170   -4.3348  -21.8187 H   0  0  0  0  0  0  0  0  0  0  0  0
  -25.4799   -5.1846  -22.5935 H   0  0  0  0  0  0  0  0  0  0  0  0
  -24.9126   -2.1828  -22.8268 H   0  0  0  0  0  0  0  0  0  0  0  0
  -26.2121   -2.8982  -21.8381 H   0  0  0  0  0  0  0  0  0  0  0  0
  -24.4860   -4.9065  -24.6759 H   0  0  0  0  0  0  0  0  0  0  0  0
  -26.9242   -2.2088  -23.8752 H   0  0  0  0  0  0  0  0  0  0  0  0
  1  3  1  0  0  0  0
  1 10  2  0  0  0  0
  2  4  2  0  0  0  0
  2 10  1  0  0  0  0
  3 12  2  0  0  0  0
  4 12  1  0  0  0  0
  5  8  1  0  0  0  0
  5 18  2  0  0  0  0
  6 13  1  0  0  0  0
  6 15  2  0  0  0  0
  7 16  2  0  0  0  0
  7 17  1  0  0  0  0
  8 31  2  0  0  0  0
  9 14  2  0  0  0  0
  9 15  1  0  0  0  0
  9 16  1  0  0  0  0
 10 11  1  0  0  0  0
 11 13  2  0  0  0  0
 11 14  1  0  0  0  0
 12 28  1  0  0  0  0
 13 24  1  0  0  0  0
 14 25  1  0  0  0  0
 15 32  1  0  0  0  0
 16 33  1  0  0  0  0
 17 20  1  0  0  0  0
 17 32  2  0  0  0  0
 18 26  1  0  0  0  0
 18 33  1  0  0  0  0
 19 21  1  0  0  0  0
 19 34  1  0  0  0  0
 19 37  2  0  0  0  0
 20 36  1  0  0  0  0
 20 38  2  0  0  0  0
 21 35  1  0  0  0  0
 22 23  1  0  0  0  0
 22 34  1  0  0  0  0
 23 35  1  0  0  0  0
 27 34  1  0  0  0  0
 28 35  1  0  0  0  0
 29 30  1  0  0  0  0
 29 36  1  0  0  0  0
 30 39  1  0  0  0  0
 31 33  1  0  0  0  0
  1 40  1  0  0  0  0
  2 41  1  0  0  0  0
  3 42  1  0  0  0  0
  4 43  1  0  0  0  0
  5 44  1  0  0  0  0
  6 45  1  0  0  0  0
  7 46  1  0  0  0  0
  8 47  1  0  0  0  0
 21 48  1  0  0  0  0
 21 49  1  0  0  0  0
 22 50  1  0  0  0  0
 22 51  1  0  0  0  0
 23 52  1  0  0  0  0
 23 53  1  0  0  0  0
 24 54  1  0  0  0  0
 24 55  1  0  0  0  0
 24 56  1  0  0  0  0
 25 57  1  0  0  0  0
 25 58  1  0  0  0  0
 25 59  1  0  0  0  0
 26 60  1  0  0  0  0
 26 61  1  0  0  0  0
 26 62  1  0  0  0  0
 27 63  1  0  0  0  0
 27 64  1  0  0  0  0
 27 65  1  0  0  0  0
 28 66  1  0  0  0  0
 28 67  1  0  0  0  0
 29 68  1  0  0  0  0
 29 69  1  0  0  0  0
 30 70  1  0  0  0  0
 30 71  1  0  0  0  0
 36 72  1  0  0  0  0
 39 73  1  0  0  0  0
M  END
> <SMILES>
CN1CCN(CC1=O)Cc1ccc(cc1)-c1c(cc2nc(cc(c2c1C)-n1nccc1C)C(=O)NCCO)C

> <FORMATTED_ID>
H3D-006119

> <MOLFORMULA>
C30H34N6O3

> <Exact Mass>
526.27

> <XLogP>
2.86

> <TPSA_NOPS>
103.6

> <s_m_source_file>
ligprep_h3d.sdf

> <i_m_source_file_index>
995

> <i_lp_mmshare_version>
55123

> <i_f3d_flags>
0

> <s_epik_input>
W0NIM11OMVtDSDJdW0NIMl1OKFtDSDJdQzE9TylbQ0gyXWMyW2NIXVtjSF1jKFtjSF1bY0hdMiktYyhjKFtjSF0zKVtDSDNdKWMoW0NIM10pYyhjMzQpYygtbjVuW2NIXVtjSF1jNVtDSDNdKVtjSF1jKG40KUMoPU8pW05IXVtDSDJdW0NIMl1bT0hd

> <s_epik_cmdline>
J2VwaWtfcHl0aG9uJywgJy1waHQnLCAnMC41JywgJy1waCcsICc3LjUnLCAnLXRuJywgJzgnLCAnLW1hJywgJzUwMCcsICctaW1hZScsICc8aW5maWxlLm1hZT4nLCAnLW9tYWUnLCAnPG91dGZpbGUubWFlPic=

> <r_lp_tautomer_probability>
1

> <r_epik_Ionization_Penalty>
0.0157683

> <r_epik_Ionization_Penalty_Charging>
0

> <r_epik_Ionization_Penalty_Neutral>
0.0157683

> <r_epik_State_Penalty>
0.0123941

> <r_epik_Charging_Adjusted_Penalty>
0.0123941

> <i_epik_Tot_Q>
0

> <i_epik_Tot_abs_Q>
0

> <s_lp_Force_Field>
S-OPLS

> <r_lp_Energy>
76.7102

> <b_lp_Chiralities_Consistent>
1

> <s_lp_Variant>
ligprep_h3d.sdf:995-1

> <ROCS_ShapeQuery>
_7L13

> <ROCS_TanimotoCombo>
0.685 

> <ROCS_ShapeTanimoto>
0.583 

> <ROCS_ColorTanimoto>
0.102 

> <ROCS_RefTversky>
0.766 

> <ROCS_RefColorTversky>
0.221 

> <ROCS_RefTverskyCombo>
0.986 

> <ROCS_FitTversky>
0.710 

> <ROCS_FitColorTversky>
0.159 

> <ROCS_FitTverskyCombo>
0.869 

> <ROCS_ColorScore>
-2.032

> <ROCS_Overlap>
1276.832

> <ROCS_Rank>
621                 

$$$$
ligprep_h3d.sdf:851_91
  -OEChem-08212117123D

 59 64  0     1  0  0  0  0  0999 V2000
  -20.9742   -5.1359  -29.5151 C   0  0  0  0  0  0  0  0  0  0  0  0
  -21.7502   -4.3758  -30.3924 C   0  0  0  0  0  0  0  0  0  0  0  0
  -21.0849   -4.8967  -28.1233 C   0  0  0  0  0  0  0  0  0  0  0  0
  -21.9819   -3.9454  -27.5850 C   0  0  0  0  0  0  0  0  0  0  0  0
  -22.5960   -3.4260  -29.8638 C   0  0  0  0  0  0  0  0  0  0  0  0
  -22.7412   -3.1761  -28.4990 C   0  0  0  0  0  0  0  0  0  0  0  0
  -21.9488   -4.2662  -31.7813 C   0  0  0  0  0  0  0  0  0  0  0  0
  -19.2484   -6.1156  -25.0171 C   0  0  0  0  0  0  0  0  0  0  0  0
  -18.9291   -3.8482  -26.1651 C   0  0  0  0  0  0  0  0  0  0  0  0
  -17.0954   -5.4269  -25.6123 C   0  0  0  0  0  0  0  0  0  0  0  0
  -19.9795   -3.7565  -34.2602 C   0  0  0  0  0  0  0  0  0  0  0  0
  -20.2177   -5.7210  -27.2105 C   0  0  0  0  0  0  0  0  0  0  0  0
  -19.4636   -6.1332  -33.7607 C   0  0  0  0  0  0  0  0  0  0  0  0
  -21.7700   -6.3573  -33.1447 C   0  0  0  0  0  0  0  0  0  0  0  0
  -23.0446   -2.8017  -25.6521 C   0  0  0  0  0  0  0  0  0  0  0  0
  -19.9209   -4.7943  -33.1826 C   0  0  2  0  0  0  0  0  0  0  0  0
  -21.2107   -4.4852  -25.2376 C   0  0  2  0  0  0  0  0  0  0  0  0
  -20.7613   -6.7982  -34.2031 C   0  0  2  0  0  0  0  0  0  0  0  0
  -23.4156   -3.1104  -24.1994 C   0  0  1  0  0  0  0  0  0  0  0  0
  -21.0429   -3.5466  -24.0054 C   0  0  2  0  0  0  0  0  0  0  0  0
  -19.8813   -5.0009  -25.8818 C   0  0  1  0  0  0  0  0  0  0  0  0
  -24.4042   -4.2684  -24.0769 C   0  0  0  0  0  0  0  0  0  0  0  0
  -20.0932   -4.0241  -22.9136 C   0  0  0  0  0  0  0  0  0  0  0  0
  -22.8432   -3.3231  -32.0924 N   0  0  0  0  0  0  0  0  0  0  0  0
  -17.9428   -6.3500  -25.1612 N   0  5  0  0  0  0  0  0  0  0  0  0
  -17.6034   -4.2027  -26.0356 N   0  0  0  0  0  0  0  0  0  0  0  0
  -22.0903   -3.7725  -26.2033 N   0  0  3  0  0  0  0  0  0  0  0  0
  -21.2696   -5.0625  -32.6836 N   0  0  0  0  0  0  0  0  0  0  0  0
  -20.8666   -2.8715  -34.1086 O   0  5  0  0  0  0  0  0  0  0  0  0
  -19.9697   -6.8323  -24.3204 O   0  0  0  0  0  0  0  0  0  0  0  0
  -19.2829   -2.7297  -26.5299 O   0  0  0  0  0  0  0  0  0  0  0  0
  -15.8760   -5.6094  -25.6674 O   0  0  0  0  0  0  0  0  0  0  0  0
  -19.1303   -3.9031  -35.1836 O   0  0  0  0  0  0  0  0  0  0  0  0
  -23.2503   -2.7908  -30.8745 O   0  0  0  0  0  0  0  0  0  0  0  0
  -22.3042   -3.3697  -23.3482 O   0  0  0  0  0  0  0  0  0  0  0  0
  -20.6126   -8.2044  -34.2334 O   0  0  0  0  0  0  0  0  0  0  0  0
  -23.5163   -2.1491  -28.1299 F   0  0  0  0  0  0  0  0  0  0  0  0
  -20.2916   -5.8919  -29.8933 H   0  0  0  0  0  0  0  0  0  0  0  0
  -20.7456   -6.6652  -27.0165 H   0  0  0  0  0  0  0  0  0  0  0  0
  -19.2877   -5.9818  -27.7344 H   0  0  0  0  0  0  0  0  0  0  0  0
  -18.7672   -6.0293  -34.5996 H   0  0  0  0  0  0  0  0  0  0  0  0
  -18.9658   -6.7359  -32.9908 H   0  0  0  0  0  0  0  0  0  0  0  0
  -22.7755   -6.2691  -33.5723 H   0  0  0  0  0  0  0  0  0  0  0  0
  -21.8154   -7.0737  -32.3143 H   0  0  0  0  0  0  0  0  0  0  0  0
  -23.9567   -2.8431  -26.2841 H   0  0  0  0  0  0  0  0  0  0  0  0
  -22.7320   -1.7461  -25.7006 H   0  0  0  0  0  0  0  0  0  0  0  0
  -19.2285   -4.4660  -32.3826 H   0  0  0  0  0  0  0  0  0  0  0  0
  -21.7972   -5.3570  -24.9105 H   0  0  0  0  0  0  0  0  0  0  0  0
  -21.0570   -6.4459  -35.1986 H   0  0  0  0  0  0  0  0  0  0  0  0
  -23.9603   -2.1996  -23.7672 H   0  0  0  0  0  0  0  0  0  0  0  0
  -20.6937   -2.5460  -24.3218 H   0  0  0  0  0  0  0  0  0  0  0  0
  -23.9586   -5.1823  -24.4701 H   0  0  0  0  0  0  0  0  0  0  0  0
  -25.3105   -4.0462  -24.6402 H   0  0  0  0  0  0  0  0  0  0  0  0
  -24.6674   -4.4250  -23.0307 H   0  0  0  0  0  0  0  0  0  0  0  0
  -20.3937   -5.0118  -22.5639 H   0  0  0  0  0  0  0  0  0  0  0  0
  -20.1127   -3.3303  -22.0731 H   0  0  0  0  0  0  0  0  0  0  0  0
  -19.0765   -4.0806  -23.3024 H   0  0  0  0  0  0  0  0  0  0  0  0
  -16.9201   -3.5018  -26.3076 H   0  0  0  0  0  0  0  0  0  0  0  0
  -19.9014   -8.4041  -34.8665 H   0  0  0  0  0  0  0  0  0  0  0  0
  1  2  2  0  0  0  0
  1  3  1  0  0  0  0
  2  5  1  0  0  0  0
  2  7  1  0  0  0  0
  3  4  2  0  0  0  0
  3 12  1  0  0  0  0
  4  6  1  0  0  0  0
  4 27  1  0  0  0  0
  5  6  2  0  0  0  0
  5 34  1  0  0  0  0
  6 37  1  0  0  0  0
  7 24  2  0  0  0  0
  7 28  1  0  0  0  0
  8 21  1  0  0  0  0
  8 25  1  0  0  0  0
  8 30  2  0  0  0  0
  9 21  1  0  0  0  0
  9 26  1  0  0  0  0
  9 31  2  0  0  0  0
 10 25  1  0  0  0  0
 10 26  1  0  0  0  0
 10 32  2  0  0  0  0
 11 16  1  0  0  0  0
 11 29  1  0  0  0  0
 11 33  2  0  0  0  0
 12 21  1  0  0  0  0
 13 16  1  0  0  0  0
 13 18  1  0  0  0  0
 14 18  1  0  0  0  0
 14 28  1  0  0  0  0
 15 19  1  0  0  0  0
 15 27  1  0  0  0  0
 16 28  1  0  0  0  0
 17 20  1  0  0  0  0
 17 21  1  0  0  0  0
 17 27  1  0  0  0  0
 18 36  1  0  0  0  0
 19 22  1  0  0  0  0
 19 35  1  0  0  0  0
 20 23  1  0  0  0  0
 20 35  1  0  0  0  0
 24 34  1  0  0  0  0
  1 38  1  0  0  0  0
 12 39  1  0  0  0  0
 12 40  1  0  0  0  0
 13 41  1  0  0  0  0
 13 42  1  0  0  0  0
 14 43  1  0  0  0  0
 14 44  1  0  0  0  0
 15 45  1  0  0  0  0
 15 46  1  0  0  0  0
 16 47  1  0  0  0  0
 17 48  1  0  0  0  0
 18 49  1  0  0  0  0
 19 50  1  0  0  0  0
 20 51  1  0  0  0  0
 22 52  1  0  0  0  0
 22 53  1  0  0  0  0
 22 54  1  0  0  0  0
 23 55  1  0  0  0  0
 23 56  1  0  0  0  0
 23 57  1  0  0  0  0
 26 58  1  0  0  0  0
 36 59  1  0  0  0  0
M  CHG  2  25  -1  29  -1
M  END
> <SMILES>
C[C@@H]1CN2[C@H]([C@H](C)O1)C1(Cc3cc4c(noc4c(c32)F)N2C[C@H](O)C[C@H]2C(=O)O)C(=O)NC(=O)NC1=O

> <FORMATTED_ID>
H3D-005663

> <MOLFORMULA>
C23H24FN5O8

> <Exact Mass>
517.16

> <XLogP>
-1.05

> <TPSA_NOPS>
174.8

> <s_m_source_file>
ligprep_h3d.sdf

> <i_m_source_file_index>
851

> <i_lp_mmshare_version>
55123

> <i_f3d_flags>
0

> <s_epik_input>
Tz1DMVtOSF1DKD1PKVtOSF1DKD1PKUMxMltDQEBIXTNOKFtDSDJdW0NAQEhdKFtDSDNdKU9bQ0BIXTNbQ0gzXSljNGMoW0NIMl0yKVtjSF1jNWMoYzRGKW9uYzVONltDSDJdW0NASF0oW09IXSlbQ0gyXVtDQEhdNkMoPU8pW09IXQ==

> <s_epik_cmdline>
J2VwaWtfcHl0aG9uJywgJy1waHQnLCAnMC41JywgJy1waCcsICc3LjUnLCAnLXRuJywgJzgnLCAnLW1hJywgJzUwMCcsICctaW1hZScsICc8aW5maWxlLm1hZT4nLCAnLW9tYWUnLCAnPG91dGZpbGUubWFlPic=

> <r_lp_tautomer_probability>
1

> <r_epik_Ionization_Penalty>
0.45546

> <r_epik_Ionization_Penalty_Charging>
0.45544

> <r_epik_Ionization_Penalty_Neutral>
1.95694e-05

> <r_epik_State_Penalty>
0.458483

> <r_epik_Charging_Adjusted_Penalty>
0.913924

> <i_epik_Tot_Q>
-2

> <i_epik_Tot_abs_Q>
2

> <s_lp_Force_Field>
S-OPLS

> <r_lp_Energy>
55.3225

> <b_lp_Chiralities_Consistent>
1

> <s_lp_Variant>
ligprep_h3d.sdf:851-2

> <ROCS_ShapeQuery>
_7L13

> <ROCS_TanimotoCombo>
0.704 

> <ROCS_ShapeTanimoto>
0.594 

> <ROCS_ColorTanimoto>
0.109 

> <ROCS_RefTversky>
0.766 

> <ROCS_RefColorTversky>
0.291 

> <ROCS_RefTverskyCombo>
1.057 

> <ROCS_FitTversky>
0.726 

> <ROCS_FitColorTversky>
0.149 

> <ROCS_FitTverskyCombo>
0.876 

> <ROCS_ColorScore>
-2.767

> <ROCS_Overlap>
1275.082

> <ROCS_Rank>
622                 

$$$$
ligprep_h3d.sdf:5475_976
  -OEChem-08212117123D

 57 61  0     0  0  0  0  0  0999 V2000
  -17.7849   -5.7302  -26.3173 C   0  0  0  0  0  0  0  0  0  0  0  0
  -18.9676   -6.3143  -25.8638 C   0  0  0  0  0  0  0  0  0  0  0  0
  -17.7020   -4.3454  -26.4629 C   0  0  0  0  0  0  0  0  0  0  0  0
  -20.6029   -5.5802  -32.2077 C   0  0  0  0  0  0  0  0  0  0  0  0
  -21.7625   -4.8019  -34.1792 C   0  0  0  0  0  0  0  0  0  0  0  0
  -20.0675   -5.5136  -25.5561 C   0  0  0  0  0  0  0  0  0  0  0  0
  -18.8019   -3.5447  -26.1551 C   0  0  0  0  0  0  0  0  0  0  0  0
  -19.9733   -6.5662  -32.9673 C   0  0  0  0  0  0  0  0  0  0  0  0
  -21.1328   -5.7878  -34.9388 C   0  0  0  0  0  0  0  0  0  0  0  0
  -23.5098   -3.8554  -23.3384 C   0  0  0  0  0  0  0  0  0  0  0  0
  -24.6807   -4.2556  -22.6860 C   0  0  0  0  0  0  0  0  0  0  0  0
  -25.5525   -5.2735  -24.7186 C   0  0  0  0  0  0  0  0  0  0  0  0
  -21.4976   -4.6981  -32.8136 C   0  0  0  0  0  0  0  0  0  0  0  0
  -20.2382   -6.6700  -34.3328 C   0  0  0  0  0  0  0  0  0  0  0  0
  -19.9847   -4.1288  -25.7017 C   0  0  0  0  0  0  0  0  0  0  0  0
  -24.3828   -4.8790  -25.3899 C   0  0  0  0  0  0  0  0  0  0  0  0
  -23.3995   -4.1862  -24.6894 C   0  0  0  0  0  0  0  0  0  0  0  0
  -25.6852   -4.9521  -23.3619 C   0  0  0  0  0  0  0  0  0  0  0  0
  -22.8265   -4.5031  -26.8026 C   0  0  0  0  0  0  0  0  0  0  0  0
  -22.1608   -3.6592  -32.0149 C   0  0  0  0  0  0  0  0  0  0  0  0
  -21.5851   -3.1237  -28.4822 C   0  0  0  0  0  0  0  0  0  0  0  0
  -21.8794   -5.5354  -28.8546 C   0  0  0  0  0  0  0  0  0  0  0  0
  -22.4383   -2.8095  -29.7088 C   0  0  0  0  0  0  0  0  0  0  0  0
  -22.7255   -5.2467  -30.0996 C   0  0  0  0  0  0  0  0  0  0  0  0
  -19.5637   -7.7238  -35.1448 C   0  0  0  0  0  0  0  0  0  0  0  0
  -21.1710   -3.2644  -25.3701 C   0  0  0  0  0  0  0  0  0  0  0  0
  -24.0092   -5.0668  -26.7008 N   0  0  0  0  0  0  0  0  0  0  0  0
  -22.4160   -3.9587  -25.6176 N   0  0  0  0  0  0  0  0  0  0  0  0
  -22.0046   -4.4108  -27.9203 N   0  0  0  0  0  0  0  0  0  0  0  0
  -22.4105   -3.9227  -30.6652 N   0  0  0  0  0  0  0  0  0  0  0  0
  -22.4551   -2.6229  -32.6088 O   0  0  0  0  0  0  0  0  0  0  0  0
  -27.1105   -5.4244  -22.5158 Cl  0  0  0  0  0  0  0  0  0  0  0  0
  -16.9281   -6.3537  -26.5556 H   0  0  0  0  0  0  0  0  0  0  0  0
  -19.0320   -7.3924  -25.7494 H   0  0  0  0  0  0  0  0  0  0  0  0
  -16.7810   -3.8903  -26.8148 H   0  0  0  0  0  0  0  0  0  0  0  0
  -20.3895   -5.5077  -31.1444 H   0  0  0  0  0  0  0  0  0  0  0  0
  -22.4578   -4.1201  -34.6619 H   0  0  0  0  0  0  0  0  0  0  0  0
  -20.9851   -5.9774  -25.2036 H   0  0  0  0  0  0  0  0  0  0  0  0
  -18.7282   -2.4667  -26.2717 H   0  0  0  0  0  0  0  0  0  0  0  0
  -19.2774   -7.2490  -32.4870 H   0  0  0  0  0  0  0  0  0  0  0  0
  -21.3447   -5.8612  -36.0023 H   0  0  0  0  0  0  0  0  0  0  0  0
  -22.7309   -3.3148  -22.8128 H   0  0  0  0  0  0  0  0  0  0  0  0
  -24.7962   -4.0120  -21.6317 H   0  0  0  0  0  0  0  0  0  0  0  0
  -26.3305   -5.8149  -25.2485 H   0  0  0  0  0  0  0  0  0  0  0  0
  -20.5301   -3.1706  -28.7551 H   0  0  0  0  0  0  0  0  0  0  0  0
  -21.7130   -2.3278  -27.7473 H   0  0  0  0  0  0  0  0  0  0  0  0
  -22.2182   -6.4515  -28.3725 H   0  0  0  0  0  0  0  0  0  0  0  0
  -20.8410   -5.6673  -29.1566 H   0  0  0  0  0  0  0  0  0  0  0  0
  -23.4791   -2.6509  -29.4239 H   0  0  0  0  0  0  0  0  0  0  0  0
  -22.0727   -1.9021  -30.1858 H   0  0  0  0  0  0  0  0  0  0  0  0
  -22.5282   -5.9839  -30.8792 H   0  0  0  0  0  0  0  0  0  0  0  0
  -23.7855   -5.2953  -29.8538 H   0  0  0  0  0  0  0  0  0  0  0  0
  -20.1640   -8.6417  -35.1534 H   0  0  0  0  0  0  0  0  0  0  0  0
  -19.4165   -7.3945  -36.1815 H   0  0  0  0  0  0  0  0  0  0  0  0
  -18.5702   -7.9614  -34.7428 H   0  0  0  0  0  0  0  0  0  0  0  0
  -21.1539   -2.9551  -24.3179 H   0  0  0  0  0  0  0  0  0  0  0  0
  -21.1685   -2.3430  -25.9650 H   0  0  0  0  0  0  0  0  0  0  0  0
  1  2  2  0  0  0  0
  1  3  1  0  0  0  0
  2  6  1  0  0  0  0
  3  7  2  0  0  0  0
  4  8  1  0  0  0  0
  4 13  2  0  0  0  0
  5  9  2  0  0  0  0
  5 13  1  0  0  0  0
  6 15  2  0  0  0  0
  7 15  1  0  0  0  0
  8 14  2  0  0  0  0
  9 14  1  0  0  0  0
 10 11  1  0  0  0  0
 10 17  2  0  0  0  0
 11 18  2  0  0  0  0
 12 16  2  0  0  0  0
 12 18  1  0  0  0  0
 13 20  1  0  0  0  0
 14 25  1  0  0  0  0
 15 26  1  0  0  0  0
 16 17  1  0  0  0  0
 16 27  1  0  0  0  0
 17 28  1  0  0  0  0
 18 32  1  0  0  0  0
 19 27  2  0  0  0  0
 19 28  1  0  0  0  0
 19 29  1  0  0  0  0
 20 30  1  0  0  0  0
 20 31  2  0  0  0  0
 21 23  1  0  0  0  0
 21 29  1  0  0  0  0
 22 24  1  0  0  0  0
 22 29  1  0  0  0  0
 23 30  1  0  0  0  0
 24 30  1  0  0  0  0
 26 28  1  0  0  0  0
  1 33  1  0  0  0  0
  2 34  1  0  0  0  0
  3 35  1  0  0  0  0
  4 36  1  0  0  0  0
  5 37  1  0  0  0  0
  6 38  1  0  0  0  0
  7 39  1  0  0  0  0
  8 40  1  0  0  0  0
  9 41  1  0  0  0  0
 10 42  1  0  0  0  0
 11 43  1  0  0  0  0
 12 44  1  0  0  0  0
 21 45  1  0  0  0  0
 21 46  1  0  0  0  0
 22 47  1  0  0  0  0
 22 48  1  0  0  0  0
 23 49  1  0  0  0  0
 23 50  1  0  0  0  0
 24 51  1  0  0  0  0
 24 52  1  0  0  0  0
 25 53  1  0  0  0  0
 25 54  1  0  0  0  0
 25 55  1  0  0  0  0
 26 56  1  0  0  0  0
 26 57  1  0  0  0  0
M  END
> <SMILES>
Cc1ccc(cc1)C(=O)N1CCN(CC1)c1nc2cc(ccc2n1Cc1ccccc1)Cl

> <FORMATTED_ID>
H3D-003520

> <MOLFORMULA>
C26H25ClN4O

> <Exact Mass>
444.17

> <XLogP>
6.75

> <TPSA_NOPS>
41.4

> <s_m_source_file>
ligprep_h3d.sdf

> <i_m_source_file_index>
5475

> <i_lp_mmshare_version>
55123

> <i_f3d_flags>
0

> <s_epik_input>
W0NIM11jMVtjSF1bY0hdYyhbY0hdW2NIXTEpQyg9TylOMltDSDJdW0NIMl1OKFtDSDJdW0NIMl0yKWMobjMpbihjKGMzNClbY0hdW2NIXWMoQ2wpW2NIXTQpW0NIMl1jNVtjSF1bY0hdW2NIXVtjSF1bY0hdNQ==

> <s_epik_cmdline>
J2VwaWtfcHl0aG9uJywgJy1waHQnLCAnMC41JywgJy1waCcsICc3LjUnLCAnLXRuJywgJzgnLCAnLW1hJywgJzUwMCcsICctaW1hZScsICc8aW5maWxlLm1hZT4nLCAnLW9tYWUnLCAnPG91dGZpbGUubWFlPic=

> <r_epik_Ionization_Penalty>
0.097705

> <r_epik_Ionization_Penalty_Charging>
0

> <r_epik_Ionization_Penalty_Neutral>
0.097705

> <r_epik_State_Penalty>
0.087814

> <r_epik_Charging_Adjusted_Penalty>
0.087814

> <i_epik_Tot_Q>
0

> <i_epik_Tot_abs_Q>
0

> <s_lp_Force_Field>
S-OPLS

> <r_lp_Energy>
53.0912

> <b_lp_Chiralities_Consistent>
1

> <s_lp_Variant>
ligprep_h3d.sdf:5475-1

> <ROCS_ShapeQuery>
_7L13

> <ROCS_TanimotoCombo>
0.745 

> <ROCS_ShapeTanimoto>
0.675 

> <ROCS_ColorTanimoto>
0.070 

> <ROCS_RefTversky>
0.766 

> <ROCS_RefColorTversky>
0.118 

> <ROCS_RefTverskyCombo>
0.883 

> <ROCS_FitTversky>
0.852 

> <ROCS_FitColorTversky>
0.147 

> <ROCS_FitTverskyCombo>
0.999 

> <ROCS_ColorScore>
-1.048

> <ROCS_Overlap>
1264.093

> <ROCS_Rank>
623                 

$$$$
ligprep_h3d.sdf:817_40
  -OEChem-08212117123D

 58 63  0     1  0  0  0  0  0999 V2000
  -20.3318   -8.1171  -34.3429 C   0  0  0  0  0  0  0  0  0  0  0  0
  -20.9344   -5.0894  -29.5190 C   0  0  0  0  0  0  0  0  0  0  0  0
  -21.7302   -4.3479  -30.3943 C   0  0  0  0  0  0  0  0  0  0  0  0
  -21.0552   -4.8595  -28.1267 C   0  0  0  0  0  0  0  0  0  0  0  0
  -21.9807   -3.9361  -27.5862 C   0  0  0  0  0  0  0  0  0  0  0  0
  -22.6046   -3.4254  -29.8636 C   0  0  0  0  0  0  0  0  0  0  0  0
  -22.7602   -3.1855  -28.4980 C   0  0  0  0  0  0  0  0  0  0  0  0
  -21.9288   -4.2379  -31.7832 C   0  0  0  0  0  0  0  0  0  0  0  0
  -18.9207   -3.7484  -26.2038 C   0  0  0  0  0  0  0  0  0  0  0  0
  -19.2008   -6.0299  -25.0365 C   0  0  0  0  0  0  0  0  0  0  0  0
  -16.9627   -5.2028  -25.7327 C   0  0  0  0  0  0  0  0  0  0  0  0
  -20.1670   -5.6620  -27.2138 C   0  0  0  0  0  0  0  0  0  0  0  0
  -20.0534   -5.6607  -34.6201 C   0  0  0  0  0  0  0  0  0  0  0  0
  -20.3581   -4.4613  -33.7249 C   0  0  0  0  0  0  0  0  0  0  0  0
  -21.2640   -6.4683  -32.7222 C   0  0  0  0  0  0  0  0  0  0  0  0
  -23.0769   -2.8316  -25.6467 C   0  0  0  0  0  0  0  0  0  0  0  0
  -20.1096   -6.8419  -33.6576 C   0  0  1  0  0  0  0  0  0  0  0  0
  -21.1969   -4.4639  -25.2428 C   0  0  2  0  0  0  0  0  0  0  0  0
  -23.4403   -3.1619  -24.1964 C   0  0  1  0  0  0  0  0  0  0  0  0
  -21.0569   -3.5325  -24.0036 C   0  0  2  0  0  0  0  0  0  0  0  0
  -19.8548   -4.9277  -25.8860 C   0  0  0  0  0  0  0  0  0  0  0  0
  -24.3975   -4.3471  -24.0851 C   0  0  0  0  0  0  0  0  0  0  0  0
  -20.0912   -3.9970  -22.9199 C   0  0  0  0  0  0  0  0  0  0  0  0
  -20.5079   -9.1273  -34.8857 N   0  0  0  0  0  0  0  0  0  0  0  0
  -22.8504   -3.3206  -32.0923 N   0  0  0  0  0  0  0  0  0  0  0  0
  -17.5695   -4.0560  -26.2241 N   0  0  0  0  0  0  0  0  0  0  0  0
  -17.8210   -6.1160  -25.1369 N   0  0  0  0  0  0  0  0  0  0  0  0
  -22.0965   -3.7726  -26.2037 N   0  0  3  0  0  0  0  0  0  0  0  0
  -21.2256   -5.0077  -32.6852 N   0  0  0  0  0  0  0  0  0  0  0  0
  -19.3280   -2.6215  -26.4855 O   0  0  0  0  0  0  0  0  0  0  0  0
  -19.8529   -6.8424  -24.3793 O   0  0  0  0  0  0  0  0  0  0  0  0
  -15.7443   -5.3791  -25.7848 O   0  0  0  0  0  0  0  0  0  0  0  0
  -23.2753   -2.8057  -30.8730 O   0  0  0  0  0  0  0  0  0  0  0  0
  -22.3230   -3.3998  -23.3456 O   0  0  0  0  0  0  0  0  0  0  0  0
  -23.5667   -2.1838  -28.1280 F   0  0  0  0  0  0  0  0  0  0  0  0
  -20.2288   -5.8229  -29.8989 H   0  0  0  0  0  0  0  0  0  0  0  0
  -20.6722   -6.6184  -27.0209 H   0  0  0  0  0  0  0  0  0  0  0  0
  -19.2292   -5.9016  -27.7337 H   0  0  0  0  0  0  0  0  0  0  0  0
  -20.8183   -5.7476  -35.4028 H   0  0  0  0  0  0  0  0  0  0  0  0
  -19.0795   -5.5698  -35.1117 H   0  0  0  0  0  0  0  0  0  0  0  0
  -19.4391   -4.0714  -33.2711 H   0  0  0  0  0  0  0  0  0  0  0  0
  -20.8425   -3.6571  -34.2903 H   0  0  0  0  0  0  0  0  0  0  0  0
  -22.2359   -6.8010  -33.1100 H   0  0  0  0  0  0  0  0  0  0  0  0
  -21.1227   -6.9041  -31.7255 H   0  0  0  0  0  0  0  0  0  0  0  0
  -23.9867   -2.8921  -26.2792 H   0  0  0  0  0  0  0  0  0  0  0  0
  -22.7907   -1.7691  -25.6815 H   0  0  0  0  0  0  0  0  0  0  0  0
  -19.1763   -6.8856  -33.0816 H   0  0  0  0  0  0  0  0  0  0  0  0
  -21.7541   -5.3574  -24.9210 H   0  0  0  0  0  0  0  0  0  0  0  0
  -24.0090   -2.2700  -23.7575 H   0  0  0  0  0  0  0  0  0  0  0  0
  -20.7356   -2.5198  -24.3091 H   0  0  0  0  0  0  0  0  0  0  0  0
  -23.9273   -5.2454  -24.4856 H   0  0  0  0  0  0  0  0  0  0  0  0
  -25.3090   -4.1446  -24.6477 H   0  0  0  0  0  0  0  0  0  0  0  0
  -24.6576   -4.5199  -23.0406 H   0  0  0  0  0  0  0  0  0  0  0  0
  -20.3641   -4.9964  -22.5810 H   0  0  0  0  0  0  0  0  0  0  0  0
  -20.1266   -3.3137  -22.0715 H   0  0  0  0  0  0  0  0  0  0  0  0
  -19.0746   -4.0216  -23.3124 H   0  0  0  0  0  0  0  0  0  0  0  0
  -16.9556   -3.3655  -26.6454 H   0  0  0  0  0  0  0  0  0  0  0  0
  -17.3841   -6.9101  -24.6780 H   0  0  0  0  0  0  0  0  0  0  0  0
  1 17  1  0  0  0  0
  1 24  3  0  0  0  0
  2  3  2  0  0  0  0
  2  4  1  0  0  0  0
  3  6  1  0  0  0  0
  3  8  1  0  0  0  0
  4  5  2  0  0  0  0
  4 12  1  0  0  0  0
  5  7  1  0  0  0  0
  5 28  1  0  0  0  0
  6  7  2  0  0  0  0
  6 33  1  0  0  0  0
  7 35  1  0  0  0  0
  8 25  2  0  0  0  0
  8 29  1  0  0  0  0
  9 21  1  0  0  0  0
  9 26  1  0  0  0  0
  9 30  2  0  0  0  0
 10 21  1  0  0  0  0
 10 27  1  0  0  0  0
 10 31  2  0  0  0  0
 11 26  1  0  0  0  0
 11 27  1  0  0  0  0
 11 32  2  0  0  0  0
 12 21  1  0  0  0  0
 13 14  1  0  0  0  0
 13 17  1  0  0  0  0
 14 29  1  0  0  0  0
 15 17  1  0  0  0  0
 15 29  1  0  0  0  0
 16 19  1  0  0  0  0
 16 28  1  0  0  0  0
 18 20  1  0  0  0  0
 18 21  1  0  0  0  0
 18 28  1  0  0  0  0
 19 22  1  0  0  0  0
 19 34  1  0  0  0  0
 20 23  1  0  0  0  0
 20 34  1  0  0  0  0
 25 33  1  0  0  0  0
  2 36  1  0  0  0  0
 12 37  1  0  0  0  0
 12 38  1  0  0  0  0
 13 39  1  0  0  0  0
 13 40  1  0  0  0  0
 14 41  1  0  0  0  0
 14 42  1  0  0  0  0
 15 43  1  0  0  0  0
 15 44  1  0  0  0  0
 16 45  1  0  0  0  0
 16 46  1  0  0  0  0
 17 47  1  0  0  0  0
 18 48  1  0  0  0  0
 19 49  1  0  0  0  0
 20 50  1  0  0  0  0
 22 51  1  0  0  0  0
 22 52  1  0  0  0  0
 22 53  1  0  0  0  0
 23 54  1  0  0  0  0
 23 55  1  0  0  0  0
 23 56  1  0  0  0  0
 26 57  1  0  0  0  0
 27 58  1  0  0  0  0
M  END
> <SMILES>
C[C@@H]1CN2[C@H]([C@H](C)O1)C1(Cc3cc4c(noc4c(c32)F)N2CC[C@@H](C2)C#N)C(=O)NC(=O)NC1=O

> <FORMATTED_ID>
H3D-005496

> <MOLFORMULA>
C23H23FN6O5

> <Exact Mass>
482.17

> <XLogP>
0.41

> <TPSA_NOPS>
141.1

> <s_m_source_file>
ligprep_h3d.sdf

> <i_m_source_file_index>
817

> <i_lp_mmshare_version>
55123

> <i_f3d_flags>
0

> <s_epik_input>
Tz1DMVtOSF1DKD1PKVtOSF1DKD1PKUMxMltDQEBIXTNOKFtDSDJdW0NAQEhdKFtDSDNdKU9bQ0BIXTNbQ0gzXSljNGMoW0NIMl0yKVtjSF1jNWMoYzRGKW9uYzVONltDSDJdW0NIMl1bQ0BASF0oW0NIMl02KUMjTg==

> <s_epik_cmdline>
J2VwaWtfcHl0aG9uJywgJy1waHQnLCAnMC41JywgJy1waCcsICc3LjUnLCAnLXRuJywgJzgnLCAnLW1hJywgJzUwMCcsICctaW1hZScsICc8aW5maWxlLm1hZT4nLCAnLW9tYWUnLCAnPG91dGZpbGUubWFlPic=

> <r_lp_tautomer_probability>
1

> <r_epik_Ionization_Penalty>
0.369125

> <r_epik_Ionization_Penalty_Charging>
0

> <r_epik_Ionization_Penalty_Neutral>
0.369125

> <r_epik_State_Penalty>
0.366447

> <r_epik_Charging_Adjusted_Penalty>
0.366447

> <i_epik_Tot_Q>
0

> <i_epik_Tot_abs_Q>
0

> <s_lp_Force_Field>
S-OPLS

> <r_lp_Energy>
47.6774

> <b_lp_Chiralities_Consistent>
1

> <s_lp_Variant>
ligprep_h3d.sdf:817-1

> <ROCS_ShapeQuery>
_7L13

> <ROCS_TanimotoCombo>
0.758 

> <ROCS_ShapeTanimoto>
0.622 

> <ROCS_ColorTanimoto>
0.136 

> <ROCS_RefTversky>
0.765 

> <ROCS_RefColorTversky>
0.299 

> <ROCS_RefTverskyCombo>
1.064 

> <ROCS_FitTversky>
0.768 

> <ROCS_FitColorTversky>
0.200 

> <ROCS_FitTverskyCombo>
0.969 

> <ROCS_ColorScore>
-2.763

> <ROCS_Overlap>
1270.849

> <ROCS_Rank>
624                 

$$$$
ligprep_h3d.sdf:657_820
  -OEChem-08212117123D

 74 78  0     1  0  0  0  0  0999 V2000
  -20.9955   -3.9317  -32.4731 C   0  0  0  0  0  0  0  0  0  0  0  0
  -20.2924   -6.1560  -31.8445 C   0  0  0  0  0  0  0  0  0  0  0  0
  -20.5033   -4.1402  -33.7614 C   0  0  0  0  0  0  0  0  0  0  0  0
  -19.8003   -6.3645  -33.1329 C   0  0  0  0  0  0  0  0  0  0  0  0
  -16.7057   -4.7220  -26.7905 C   0  0  0  0  0  0  0  0  0  0  0  0
  -23.2517   -4.2310  -28.7105 C   0  0  0  0  0  0  0  0  0  0  0  0
  -20.7693   -4.4316  -25.3837 C   0  0  0  0  0  0  0  0  0  0  0  0
  -17.1201   -6.0619  -26.6684 C   0  0  0  0  0  0  0  0  0  0  0  0
  -21.0644   -4.5812  -27.7786 C   0  0  0  0  0  0  0  0  0  0  0  0
  -20.8900   -4.9396  -31.5146 C   0  0  0  0  0  0  0  0  0  0  0  0
  -21.4004   -4.7233  -30.1782 C   0  0  0  0  0  0  0  0  0  0  0  0
  -19.9057   -5.3566  -34.0914 C   0  0  0  0  0  0  0  0  0  0  0  0
  -22.7488   -4.4418  -29.9967 C   0  0  0  0  0  0  0  0  0  0  0  0
  -20.5582   -4.7932  -29.0722 C   0  0  0  0  0  0  0  0  0  0  0  0
  -22.4323   -4.2952  -27.5868 C   0  0  0  0  0  0  0  0  0  0  0  0
  -20.2390   -4.6457  -26.6478 C   0  0  0  0  0  0  0  0  0  0  0  0
  -22.1192   -4.1581  -25.2959 C   0  0  0  0  0  0  0  0  0  0  0  0
  -17.8744   -4.0005  -26.7978 C   0  0  0  0  0  0  0  0  0  0  0  0
  -22.7382   -3.9256  -24.0022 C   0  0  0  0  0  0  0  0  0  0  0  0
  -20.3470   -7.7071  -36.0669 C   0  0  0  0  0  0  0  0  0  0  0  0
  -18.1136   -7.1395  -36.8155 C   0  0  0  0  0  0  0  0  0  0  0  0
  -20.0849   -9.1992  -36.2908 C   0  0  1  0  0  0  0  0  0  0  0  0
  -17.7804   -8.6136  -37.0638 C   0  0  2  0  0  0  0  0  0  0  0  0
  -23.6971   -4.3537  -31.1502 C   0  0  0  0  0  0  0  0  0  0  0  0
  -19.1128   -5.1017  -29.3461 C   0  0  0  0  0  0  0  0  0  0  0  0
  -18.1038   -2.5460  -26.9017 C   0  0  0  0  0  0  0  0  0  0  0  0
  -21.3400   -9.9437  -36.7229 C   0  0  0  0  0  0  0  0  0  0  0  0
  -16.8280   -8.7968  -38.2367 C   0  0  0  0  0  0  0  0  0  0  0  0
  -24.8449   -4.0968  -22.6519 C   0  0  0  0  0  0  0  0  0  0  0  0
  -19.3757   -5.5809  -35.4780 C   0  0  0  0  0  0  0  0  0  0  0  0
  -18.4483   -6.1869  -26.6026 N   0  0  0  0  0  0  0  0  0  0  0  0
  -22.9497   -4.0869  -26.3613 N   0  0  0  0  0  0  0  0  0  0  0  0
  -18.8786   -4.9163  -26.6837 N   0  0  0  0  0  0  0  0  0  0  0  0
  -19.1036   -6.9944  -35.7380 N   0  0  0  0  0  0  0  0  0  0  0  0
  -24.0844   -4.2865  -23.8662 N   0  0  0  0  0  0  0  0  0  0  0  0
  -19.0540   -9.3443  -37.3708 N   0  3  0  0  0  0  0  0  0  0  0  0
  -22.0899   -3.4081  -23.0744 O   0  0  0  0  0  0  0  0  0  0  0  0
  -21.4581   -2.9778  -32.2311 H   0  0  0  0  0  0  0  0  0  0  0  0
  -20.2034   -6.9517  -31.1086 H   0  0  0  0  0  0  0  0  0  0  0  0
  -20.5887   -3.3489  -34.5015 H   0  0  0  0  0  0  0  0  0  0  0  0
  -19.3366   -7.3156  -33.3815 H   0  0  0  0  0  0  0  0  0  0  0  0
  -15.6996   -4.3356  -26.8627 H   0  0  0  0  0  0  0  0  0  0  0  0
  -24.3112   -4.0113  -28.5830 H   0  0  0  0  0  0  0  0  0  0  0  0
  -20.1518   -4.4758  -24.4908 H   0  0  0  0  0  0  0  0  0  0  0  0
  -16.5095   -6.9522  -26.6243 H   0  0  0  0  0  0  0  0  0  0  0  0
  -20.8255   -7.2665  -36.9525 H   0  0  0  0  0  0  0  0  0  0  0  0
  -21.0548   -7.6037  -35.2346 H   0  0  0  0  0  0  0  0  0  0  0  0
  -17.1889   -6.6221  -36.5300 H   0  0  0  0  0  0  0  0  0  0  0  0
  -18.4730   -6.6684  -37.7409 H   0  0  0  0  0  0  0  0  0  0  0  0
  -19.6661   -9.6660  -35.3910 H   0  0  0  0  0  0  0  0  0  0  0  0
  -17.3587   -9.0798  -36.1650 H   0  0  0  0  0  0  0  0  0  0  0  0
  -23.7374   -3.3264  -31.5281 H   0  0  0  0  0  0  0  0  0  0  0  0
  -23.3875   -5.0166  -31.9664 H   0  0  0  0  0  0  0  0  0  0  0  0
  -24.7074   -4.6592  -30.8538 H   0  0  0  0  0  0  0  0  0  0  0  0
  -18.9549   -6.1829  -29.3263 H   0  0  0  0  0  0  0  0  0  0  0  0
  -18.8133   -4.7145  -30.3240 H   0  0  0  0  0  0  0  0  0  0  0  0
  -18.4686   -4.6325  -28.5972 H   0  0  0  0  0  0  0  0  0  0  0  0
  -18.2085   -2.2346  -27.9539 H   0  0  0  0  0  0  0  0  0  0  0  0
  -19.0163   -2.2318  -26.3668 H   0  0  0  0  0  0  0  0  0  0  0  0
  -17.2765   -1.9642  -26.4606 H   0  0  0  0  0  0  0  0  0  0  0  0
  -21.7597   -9.4825  -37.6177 H   0  0  0  0  0  0  0  0  0  0  0  0
  -22.0859   -9.9131  -35.9279 H   0  0  0  0  0  0  0  0  0  0  0  0
  -21.1010  -10.9850  -36.9422 H   0  0  0  0  0  0  0  0  0  0  0  0
  -17.2439   -8.3344  -39.1326 H   0  0  0  0  0  0  0  0  0  0  0  0
  -16.6708   -9.8588  -38.4289 H   0  0  0  0  0  0  0  0  0  0  0  0
  -15.8665   -8.3326  -38.0144 H   0  0  0  0  0  0  0  0  0  0  0  0
  -24.8126   -5.0175  -22.0508 H   0  0  0  0  0  0  0  0  0  0  0  0
  -24.4122   -3.2667  -22.0744 H   0  0  0  0  0  0  0  0  0  0  0  0
  -25.8889   -3.8616  -22.9062 H   0  0  0  0  0  0  0  0  0  0  0  0
  -20.0949   -5.2325  -36.2273 H   0  0  0  0  0  0  0  0  0  0  0  0
  -18.4452   -5.0260  -35.6376 H   0  0  0  0  0  0  0  0  0  0  0  0
  -24.5845   -4.6464  -24.6725 H   0  0  0  0  0  0  0  0  0  0  0  0
  -18.8481  -10.3430  -37.5134 H   0  0  0  0  0  0  0  0  0  0  0  0
  -19.4397   -9.0054  -38.2639 H   0  0  0  0  0  0  0  0  0  0  0  0
  1  3  1  0  0  0  0
  1 10  2  0  0  0  0
  2  4  2  0  0  0  0
  2 10  1  0  0  0  0
  3 12  2  0  0  0  0
  4 12  1  0  0  0  0
  5  8  1  0  0  0  0
  5 18  2  0  0  0  0
  6 13  2  0  0  0  0
  6 15  1  0  0  0  0
  7 16  1  0  0  0  0
  7 17  2  0  0  0  0
  8 31  2  0  0  0  0
  9 14  1  0  0  0  0
  9 15  1  0  0  0  0
  9 16  2  0  0  0  0
 10 11  1  0  0  0  0
 11 13  1  0  0  0  0
 11 14  2  0  0  0  0
 12 30  1  0  0  0  0
 13 24  1  0  0  0  0
 14 25  1  0  0  0  0
 15 32  2  0  0  0  0
 16 33  1  0  0  0  0
 17 19  1  0  0  0  0
 17 32  1  0  0  0  0
 18 26  1  0  0  0  0
 18 33  1  0  0  0  0
 19 35  1  0  0  0  0
 19 37  2  0  0  0  0
 20 22  1  0  0  0  0
 20 34  1  0  0  0  0
 21 23  1  0  0  0  0
 21 34  1  0  0  0  0
 22 27  1  0  0  0  0
 22 36  1  0  0  0  0
 23 28  1  0  0  0  0
 23 36  1  0  0  0  0
 29 35  1  0  0  0  0
 30 34  1  0  0  0  0
 31 33  1  0  0  0  0
  1 38  1  0  0  0  0
  2 39  1  0  0  0  0
  3 40  1  0  0  0  0
  4 41  1  0  0  0  0
  5 42  1  0  0  0  0
  6 43  1  0  0  0  0
  7 44  1  0  0  0  0
  8 45  1  0  0  0  0
 20 46  1  0  0  0  0
 20 47  1  0  0  0  0
 21 48  1  0  0  0  0
 21 49  1  0  0  0  0
 22 50  1  0  0  0  0
 23 51  1  0  0  0  0
 24 52  1  0  0  0  0
 24 53  1  0  0  0  0
 24 54  1  0  0  0  0
 25 55  1  0  0  0  0
 25 56  1  0  0  0  0
 25 57  1  0  0  0  0
 26 58  1  0  0  0  0
 26 59  1  0  0  0  0
 26 60  1  0  0  0  0
 27 61  1  0  0  0  0
 27 62  1  0  0  0  0
 27 63  1  0  0  0  0
 28 64  1  0  0  0  0
 28 65  1  0  0  0  0
 28 66  1  0  0  0  0
 29 67  1  0  0  0  0
 29 68  1  0  0  0  0
 29 69  1  0  0  0  0
 30 70  1  0  0  0  0
 30 71  1  0  0  0  0
 35 72  1  0  0  0  0
 36 73  1  0  0  0  0
 36 74  1  0  0  0  0
M  CHG  1  36   1
M  END
> <SMILES>
CNC(=O)c1cc(c2c(c(c(cc2n1)C)-c1ccc(cc1)CN1C[C@@H](C)N[C@@H](C)C1)C)-n1nccc1C

> <FORMATTED_ID>
H3D-004762

> <MOLFORMULA>
C30H36N6O

> <Exact Mass>
496.3

> <XLogP>
4.54

> <TPSA_NOPS>
75.1

> <s_m_source_file>
ligprep_h3d.sdf

> <i_m_source_file_index>
657

> <i_lp_mmshare_version>
55123

> <i_f3d_flags>
0

> <s_epik_input>
W0NIM11jMVtjSF1bY0hdbm4xLWMyW2NIXWMoQyg9TylbTkhdW0NIM10pbmMoYzIzKVtjSF1jKFtDSDNdKWMoYzNbQ0gzXSktYzRbY0hdW2NIXWMoW2NIXVtjSF00KVtDSDJdTjVbQ0gyXVtDQEBIXShbQ0gzXSlbTkhdW0NAQEhdKFtDSDNdKVtDSDJdNQ==

> <s_epik_cmdline>
J2VwaWtfcHl0aG9uJywgJy1waHQnLCAnMC41JywgJy1waCcsICc3LjUnLCAnLXRuJywgJzgnLCAnLW1hJywgJzUwMCcsICctaW1hZScsICc8aW5maWxlLm1hZT4nLCAnLW9tYWUnLCAnPG91dGZpbGUubWFlPic=

> <r_lp_tautomer_probability>
1

> <r_epik_Ionization_Penalty>
0.0331464

> <r_epik_Ionization_Penalty_Charging>
0.014683

> <r_epik_Ionization_Penalty_Neutral>
0.0184634

> <r_epik_State_Penalty>
0.399827

> <r_epik_Charging_Adjusted_Penalty>
0.41451

> <i_epik_Tot_Q>
1

> <i_epik_Tot_abs_Q>
1

> <s_lp_Force_Field>
S-OPLS

> <r_lp_Energy>
75.51

> <b_lp_Chiralities_Consistent>
1

> <s_lp_Variant>
ligprep_h3d.sdf:657-1

> <ROCS_ShapeQuery>
_7L13

> <ROCS_TanimotoCombo>
0.714 

> <ROCS_ShapeTanimoto>
0.607 

> <ROCS_ColorTanimoto>
0.107 

> <ROCS_RefTversky>
0.765 

> <ROCS_RefColorTversky>
0.222 

> <ROCS_RefTverskyCombo>
0.987 

> <ROCS_FitTversky>
0.746 

> <ROCS_FitColorTversky>
0.171 

> <ROCS_FitTverskyCombo>
0.917 

> <ROCS_ColorScore>
-2.028

> <ROCS_Overlap>
1272.164

> <ROCS_Rank>
625                 

$$$$
ligprep_h3d.sdf:6095_1566
  -OEChem-08212117123D

 62 66  0     0  0  0  0  0  0999 V2000
  -19.3409   -8.1249  -35.8348 C   0  0  0  0  0  0  0  0  0  0  0  0
  -18.3885   -7.3113  -35.2212 C   0  0  0  0  0  0  0  0  0  0  0  0
  -20.6891   -7.7688  -35.8001 C   0  0  0  0  0  0  0  0  0  0  0  0
  -18.7844   -6.1415  -34.5727 C   0  0  0  0  0  0  0  0  0  0  0  0
  -21.0849   -6.5990  -35.1516 C   0  0  0  0  0  0  0  0  0  0  0  0
  -20.1326   -5.7853  -34.5379 C   0  0  0  0  0  0  0  0  0  0  0  0
  -21.9834   -4.3527  -30.3234 C   0  0  0  0  0  0  0  0  0  0  0  0
  -23.1187   -4.7818  -29.6778 C   0  0  0  0  0  0  0  0  0  0  0  0
  -21.6091   -4.7069  -28.1646 C   0  0  0  0  0  0  0  0  0  0  0  0
  -18.9031   -3.9646  -28.3640 C   0  0  0  0  0  0  0  0  0  0  0  0
  -19.6775   -3.9363  -29.4604 C   0  0  0  0  0  0  0  0  0  0  0  0
  -20.7794   -4.7346  -27.0025 C   0  0  0  0  0  0  0  0  0  0  0  0
  -19.4762   -4.3806  -27.0820 C   0  0  0  0  0  0  0  0  0  0  0  0
  -21.8098   -4.0195  -31.7028 C   0  0  0  0  0  0  0  0  0  0  0  0
  -26.0096   -4.4645  -23.4599 C   0  0  0  0  0  0  0  0  0  0  0  0
  -24.8365   -4.3007  -22.4985 C   0  0  0  0  0  0  0  0  0  0  0  0
  -25.6397   -5.3412  -24.6522 C   0  0  0  0  0  0  0  0  0  0  0  0
  -18.3854   -5.6402  -25.1518 C   0  0  0  0  0  0  0  0  0  0  0  0
  -17.2816   -5.1673  -26.0491 C   0  0  0  0  0  0  0  0  0  0  0  0
  -23.5918   -3.7786  -23.2124 C   0  0  0  0  0  0  0  0  0  0  0  0
  -24.3961   -4.8210  -25.3697 C   0  0  0  0  0  0  0  0  0  0  0  0
  -18.5402   -4.3783  -25.9293 C   0  0  0  0  0  0  0  0  0  0  0  0
  -23.2112   -4.6632  -24.4074 C   0  0  0  0  0  0  0  0  0  0  0  0
  -24.4607   -5.0129  -30.2376 C   0  0  0  0  0  0  0  0  0  0  0  0
  -20.5594   -4.5264  -33.8399 C   0  0  0  0  0  0  0  0  0  0  0  0
  -21.9966   -4.0916  -25.1364 C   0  0  0  0  0  0  0  0  0  0  0  0
  -22.8819   -4.9990  -28.3445 N   0  0  0  0  0  0  0  0  0  0  0  0
  -21.0137   -4.3041  -29.3551 N   0  0  0  0  0  0  0  0  0  0  0  0
  -20.8643   -4.7576  -32.4462 N   0  0  0  0  0  0  0  0  0  0  0  0
  -22.4591   -3.0870  -32.2392 O   0  0  0  0  0  0  0  0  0  0  0  0
  -21.3996   -5.1272  -25.8941 O   0  0  0  0  0  0  0  0  0  0  0  0
  -19.0323   -9.0351  -36.3409 H   0  0  0  0  0  0  0  0  0  0  0  0
  -17.3386   -7.5878  -35.2490 H   0  0  0  0  0  0  0  0  0  0  0  0
  -21.4307   -8.4015  -36.2787 H   0  0  0  0  0  0  0  0  0  0  0  0
  -18.0354   -5.5137  -34.0971 H   0  0  0  0  0  0  0  0  0  0  0  0
  -22.1376   -6.3295  -35.1295 H   0  0  0  0  0  0  0  0  0  0  0  0
  -17.8579   -3.6817  -28.4223 H   0  0  0  0  0  0  0  0  0  0  0  0
  -19.3005   -3.6359  -30.4304 H   0  0  0  0  0  0  0  0  0  0  0  0
  -26.8622   -4.9038  -22.9297 H   0  0  0  0  0  0  0  0  0  0  0  0
  -26.3281   -3.4777  -23.8178 H   0  0  0  0  0  0  0  0  0  0  0  0
  -25.1151   -3.6128  -21.6921 H   0  0  0  0  0  0  0  0  0  0  0  0
  -24.6102   -5.2666  -22.0303 H   0  0  0  0  0  0  0  0  0  0  0  0
  -25.4602   -6.3676  -24.3093 H   0  0  0  0  0  0  0  0  0  0  0  0
  -26.4806   -5.3817  -25.3539 H   0  0  0  0  0  0  0  0  0  0  0  0
  -18.9267   -6.5311  -25.4476 H   0  0  0  0  0  0  0  0  0  0  0  0
  -18.2417   -5.5421  -24.0823 H   0  0  0  0  0  0  0  0  0  0  0  0
  -16.3965   -4.7516  -25.5824 H   0  0  0  0  0  0  0  0  0  0  0  0
  -17.0828   -5.7414  -26.9463 H   0  0  0  0  0  0  0  0  0  0  0  0
  -23.7759   -2.7512  -23.5520 H   0  0  0  0  0  0  0  0  0  0  0  0
  -22.7590   -3.7326  -22.5005 H   0  0  0  0  0  0  0  0  0  0  0  0
  -24.1311   -5.5106  -26.1801 H   0  0  0  0  0  0  0  0  0  0  0  0
  -24.6281   -3.8557  -25.8379 H   0  0  0  0  0  0  0  0  0  0  0  0
  -18.5197   -3.4410  -25.4098 H   0  0  0  0  0  0  0  0  0  0  0  0
  -22.9398   -5.6576  -24.0284 H   0  0  0  0  0  0  0  0  0  0  0  0
  -24.5733   -6.0514  -30.5937 H   0  0  0  0  0  0  0  0  0  0  0  0
  -25.2595   -4.8273  -29.4973 H   0  0  0  0  0  0  0  0  0  0  0  0
  -24.6783   -4.3442  -31.0899 H   0  0  0  0  0  0  0  0  0  0  0  0
  -19.7691   -3.7696  -33.8912 H   0  0  0  0  0  0  0  0  0  0  0  0
  -21.4506   -4.0986  -34.3111 H   0  0  0  0  0  0  0  0  0  0  0  0
  -21.2761   -3.7112  -24.4133 H   0  0  0  0  0  0  0  0  0  0  0  0
  -22.3091   -3.2892  -25.8037 H   0  0  0  0  0  0  0  0  0  0  0  0
  -20.3138   -5.4604  -31.9637 H   0  0  0  0  0  0  0  0  0  0  0  0
  1  2  2  0  0  0  0
  1  3  1  0  0  0  0
  2  4  1  0  0  0  0
  3  5  2  0  0  0  0
  4  6  2  0  0  0  0
  5  6  1  0  0  0  0
  6 25  1  0  0  0  0
  7  8  2  0  0  0  0
  7 14  1  0  0  0  0
  7 28  1  0  0  0  0
  8 24  1  0  0  0  0
  8 27  1  0  0  0  0
  9 12  1  0  0  0  0
  9 27  2  0  0  0  0
  9 28  1  0  0  0  0
 10 11  2  0  0  0  0
 10 13  1  0  0  0  0
 11 28  1  0  0  0  0
 12 13  2  0  0  0  0
 12 31  1  0  0  0  0
 13 22  1  0  0  0  0
 14 29  1  0  0  0  0
 14 30  2  0  0  0  0
 15 16  1  0  0  0  0
 15 17  1  0  0  0  0
 16 20  1  0  0  0  0
 17 21  1  0  0  0  0
 18 19  1  0  0  0  0
 18 22  1  0  0  0  0
 19 22  1  0  0  0  0
 20 23  1  0  0  0  0
 21 23  1  0  0  0  0
 23 26  1  0  0  0  0
 25 29  1  0  0  0  0
 26 31  1  0  0  0  0
  1 32  1  0  0  0  0
  2 33  1  0  0  0  0
  3 34  1  0  0  0  0
  4 35  1  0  0  0  0
  5 36  1  0  0  0  0
 10 37  1  0  0  0  0
 11 38  1  0  0  0  0
 15 39  1  0  0  0  0
 15 40  1  0  0  0  0
 16 41  1  0  0  0  0
 16 42  1  0  0  0  0
 17 43  1  0  0  0  0
 17 44  1  0  0  0  0
 18 45  1  0  0  0  0
 18 46  1  0  0  0  0
 19 47  1  0  0  0  0
 19 48  1  0  0  0  0
 20 49  1  0  0  0  0
 20 50  1  0  0  0  0
 21 51  1  0  0  0  0
 21 52  1  0  0  0  0
 22 53  1  0  0  0  0
 23 54  1  0  0  0  0
 24 55  1  0  0  0  0
 24 56  1  0  0  0  0
 24 57  1  0  0  0  0
 25 58  1  0  0  0  0
 25 59  1  0  0  0  0
 26 60  1  0  0  0  0
 26 61  1  0  0  0  0
 29 62  1  0  0  0  0
M  END
> <SMILES>
Cc1nc2c(c(ccn2c1C(=O)NCc1ccccc1)C1CC1)OCC1CCCCC1

> <FORMATTED_ID>
H3D-000541

> <MOLFORMULA>
C26H31N3O2

> <Exact Mass>
417.24

> <XLogP>
5.9

> <TPSA_NOPS>
55.6

> <s_m_source_file>
ligprep_h3d.sdf

> <i_m_source_file_index>
6095

> <i_lp_mmshare_version>
55123

> <i_f3d_flags>
0

> <s_epik_input>
W2NIXTFbY0hdW2NIXVtjSF1bY0hdYzFbQ0gyXVtOSF1DKD1PKWMoYyhuMilbQ0gzXSluKGMyMylbY0hdW2NIXWMoW0NIXTRbQ0gyXVtDSDJdNCljM09bQ0gyXVtDSF01W0NIMl1bQ0gyXVtDSDJdW0NIMl1bQ0gyXTU=

> <s_epik_cmdline>
J2VwaWtfcHl0aG9uJywgJy1waHQnLCAnMC41JywgJy1waCcsICc3LjUnLCAnLXRuJywgJzgnLCAnLW1hJywgJzUwMCcsICctaW1hZScsICc8aW5maWxlLm1hZT4nLCAnLW9tYWUnLCAnPG91dGZpbGUubWFlPic=

> <r_lp_tautomer_probability>
1

> <r_epik_Ionization_Penalty>
0.00616277

> <r_epik_Ionization_Penalty_Charging>
0.00616072

> <r_epik_Ionization_Penalty_Neutral>
2.05132e-06

> <r_epik_State_Penalty>
-0

> <r_epik_Charging_Adjusted_Penalty>
0.00616072

> <i_epik_Tot_Q>
0

> <i_epik_Tot_abs_Q>
0

> <s_lp_Force_Field>
S-OPLS

> <r_lp_Energy>
40.7761

> <b_lp_Chiralities_Consistent>
1

> <s_lp_Variant>
ligprep_h3d.sdf:6095-1

> <ROCS_ShapeQuery>
_7L13

> <ROCS_TanimotoCombo>
0.762 

> <ROCS_ShapeTanimoto>
0.696 

> <ROCS_ColorTanimoto>
0.066 

> <ROCS_RefTversky>
0.765 

> <ROCS_RefColorTversky>
0.118 

> <ROCS_RefTverskyCombo>
0.883 

> <ROCS_FitTversky>
0.885 

> <ROCS_FitColorTversky>
0.131 

> <ROCS_FitTverskyCombo>
1.016 

> <ROCS_ColorScore>
-1.054

> <ROCS_Overlap>
1260.799

> <ROCS_Rank>
626                 

$$$$
ligprep_h3d.sdf:656_1655
  -OEChem-08212117123D

 68 72  0     0  0  0  0  0  0999 V2000
  -20.9805   -3.9156  -32.4701 C   0  0  0  0  0  0  0  0  0  0  0  0
  -20.2900   -6.1452  -31.8463 C   0  0  0  0  0  0  0  0  0  0  0  0
  -20.4867   -4.1230  -33.7580 C   0  0  0  0  0  0  0  0  0  0  0  0
  -19.7962   -6.3526  -33.1342 C   0  0  0  0  0  0  0  0  0  0  0  0
  -16.7066   -4.7433  -26.7810 C   0  0  0  0  0  0  0  0  0  0  0  0
  -23.2460   -4.2139  -28.7130 C   0  0  0  0  0  0  0  0  0  0  0  0
  -20.7715   -4.4362  -25.3817 C   0  0  0  0  0  0  0  0  0  0  0  0
  -17.1280   -6.0814  -26.6634 C   0  0  0  0  0  0  0  0  0  0  0  0
  -21.0624   -4.5777  -27.7776 C   0  0  0  0  0  0  0  0  0  0  0  0
  -20.8821   -4.9267  -31.5142 C   0  0  0  0  0  0  0  0  0  0  0  0
  -21.3941   -4.7114  -30.1783 C   0  0  0  0  0  0  0  0  0  0  0  0
  -19.8946   -5.3415  -34.0901 C   0  0  0  0  0  0  0  0  0  0  0  0
  -22.7415   -4.4236  -29.9988 C   0  0  0  0  0  0  0  0  0  0  0  0
  -20.5546   -4.7887  -29.0708 C   0  0  0  0  0  0  0  0  0  0  0  0
  -22.4292   -4.2852  -27.5879 C   0  0  0  0  0  0  0  0  0  0  0  0
  -20.2397   -4.6494  -26.6453 C   0  0  0  0  0  0  0  0  0  0  0  0
  -22.1202   -4.1561  -25.2959 C   0  0  0  0  0  0  0  0  0  0  0  0
  -17.8715   -4.0158  -26.7887 C   0  0  0  0  0  0  0  0  0  0  0  0
  -22.7406   -3.9240  -24.0029 C   0  0  0  0  0  0  0  0  0  0  0  0
  -20.3436   -7.6845  -36.0731 C   0  0  0  0  0  0  0  0  0  0  0  0
  -18.1056   -7.1264  -36.8152 C   0  0  0  0  0  0  0  0  0  0  0  0
  -20.0869   -9.1675  -36.3131 C   0  0  0  0  0  0  0  0  0  0  0  0
  -17.7919   -8.5950  -37.0745 C   0  0  0  0  0  0  0  0  0  0  0  0
  -23.6869   -4.3275  -31.1540 C   0  0  0  0  0  0  0  0  0  0  0  0
  -19.1102   -5.1038  -29.3426 C   0  0  0  0  0  0  0  0  0  0  0  0
  -18.0934   -2.5599  -26.8891 C   0  0  0  0  0  0  0  0  0  0  0  0
  -24.8510   -4.0883  -22.6574 C   0  0  0  0  0  0  0  0  0  0  0  0
  -19.3628   -5.5647  -35.4763 C   0  0  0  0  0  0  0  0  0  0  0  0
  -18.4569   -6.1998  -26.6007 N   0  0  0  0  0  0  0  0  0  0  0  0
  -22.9481   -4.0777  -26.3628 N   0  0  0  0  0  0  0  0  0  0  0  0
  -18.8806   -4.9269  -26.6791 N   0  0  0  0  0  0  0  0  0  0  0  0
  -19.0974   -6.9786  -35.7396 N   0  0  0  0  0  0  0  0  0  0  0  0
  -24.0890   -4.2785  -23.8706 N   0  0  0  0  0  0  0  0  0  0  0  0
  -19.0609   -9.3154  -37.3864 N   0  3  0  0  0  0  0  0  0  0  0  0
  -22.0917   -3.4123  -23.0723 O   0  0  0  0  0  0  0  0  0  0  0  0
  -21.4388   -2.9600  -32.2265 H   0  0  0  0  0  0  0  0  0  0  0  0
  -20.2065   -6.9433  -31.1124 H   0  0  0  0  0  0  0  0  0  0  0  0
  -20.5666   -3.3293  -34.4961 H   0  0  0  0  0  0  0  0  0  0  0  0
  -19.3369   -7.3054  -33.3845 H   0  0  0  0  0  0  0  0  0  0  0  0
  -15.6983   -4.3618  -26.8500 H   0  0  0  0  0  0  0  0  0  0  0  0
  -24.3046   -3.9891  -28.5872 H   0  0  0  0  0  0  0  0  0  0  0  0
  -20.1560   -4.4859  -24.4877 H   0  0  0  0  0  0  0  0  0  0  0  0
  -16.5219   -6.9749  -26.6206 H   0  0  0  0  0  0  0  0  0  0  0  0
  -20.7733   -7.2612  -36.9891 H   0  0  0  0  0  0  0  0  0  0  0  0
  -21.0901   -7.5604  -35.2774 H   0  0  0  0  0  0  0  0  0  0  0  0
  -17.1807   -6.5855  -36.5736 H   0  0  0  0  0  0  0  0  0  0  0  0
  -18.5005   -6.6942  -37.7426 H   0  0  0  0  0  0  0  0  0  0  0  0
  -19.6873   -9.6562  -35.4196 H   0  0  0  0  0  0  0  0  0  0  0  0
  -20.9865   -9.6971  -36.6447 H   0  0  0  0  0  0  0  0  0  0  0  0
  -17.1190   -8.7324  -37.9279 H   0  0  0  0  0  0  0  0  0  0  0  0
  -17.3602   -9.0759  -36.1917 H   0  0  0  0  0  0  0  0  0  0  0  0
  -23.7213   -3.2990  -31.5292 H   0  0  0  0  0  0  0  0  0  0  0  0
  -23.3790   -4.9898  -31.9713 H   0  0  0  0  0  0  0  0  0  0  0  0
  -24.6993   -4.6288  -30.8605 H   0  0  0  0  0  0  0  0  0  0  0  0
  -18.9578   -6.1858  -29.3255 H   0  0  0  0  0  0  0  0  0  0  0  0
  -18.8067   -4.7154  -30.3187 H   0  0  0  0  0  0  0  0  0  0  0  0
  -18.4652   -4.6399  -28.5910 H   0  0  0  0  0  0  0  0  0  0  0  0
  -18.1943   -2.2451  -27.9406 H   0  0  0  0  0  0  0  0  0  0  0  0
  -19.0053   -2.2426  -26.3551 H   0  0  0  0  0  0  0  0  0  0  0  0
  -17.2640   -1.9835  -26.4446 H   0  0  0  0  0  0  0  0  0  0  0  0
  -24.8246   -5.0108  -22.0588 H   0  0  0  0  0  0  0  0  0  0  0  0
  -24.4152   -3.2619  -22.0767 H   0  0  0  0  0  0  0  0  0  0  0  0
  -25.8932   -3.8470  -22.9132 H   0  0  0  0  0  0  0  0  0  0  0  0
  -20.0787   -5.2106  -36.2261 H   0  0  0  0  0  0  0  0  0  0  0  0
  -18.4292   -5.0141  -35.6325 H   0  0  0  0  0  0  0  0  0  0  0  0
  -24.5892   -4.6336  -24.6790 H   0  0  0  0  0  0  0  0  0  0  0  0
  -18.8618  -10.3143  -37.5371 H   0  0  0  0  0  0  0  0  0  0  0  0
  -19.4429   -8.9686  -38.2770 H   0  0  0  0  0  0  0  0  0  0  0  0
  1  3  1  0  0  0  0
  1 10  2  0  0  0  0
  2  4  2  0  0  0  0
  2 10  1  0  0  0  0
  3 12  2  0  0  0  0
  4 12  1  0  0  0  0
  5  8  1  0  0  0  0
  5 18  2  0  0  0  0
  6 13  2  0  0  0  0
  6 15  1  0  0  0  0
  7 16  1  0  0  0  0
  7 17  2  0  0  0  0
  8 29  2  0  0  0  0
  9 14  1  0  0  0  0
  9 15  1  0  0  0  0
  9 16  2  0  0  0  0
 10 11  1  0  0  0  0
 11 13  1  0  0  0  0
 11 14  2  0  0  0  0
 12 28  1  0  0  0  0
 13 24  1  0  0  0  0
 14 25  1  0  0  0  0
 15 30  2  0  0  0  0
 16 31  1  0  0  0  0
 17 19  1  0  0  0  0
 17 30  1  0  0  0  0
 18 26  1  0  0  0  0
 18 31  1  0  0  0  0
 19 33  1  0  0  0  0
 19 35  2  0  0  0  0
 20 22  1  0  0  0  0
 20 32  1  0  0  0  0
 21 23  1  0  0  0  0
 21 32  1  0  0  0  0
 22 34  1  0  0  0  0
 23 34  1  0  0  0  0
 27 33  1  0  0  0  0
 28 32  1  0  0  0  0
 29 31  1  0  0  0  0
  1 36  1  0  0  0  0
  2 37  1  0  0  0  0
  3 38  1  0  0  0  0
  4 39  1  0  0  0  0
  5 40  1  0  0  0  0
  6 41  1  0  0  0  0
  7 42  1  0  0  0  0
  8 43  1  0  0  0  0
 20 44  1  0  0  0  0
 20 45  1  0  0  0  0
 21 46  1  0  0  0  0
 21 47  1  0  0  0  0
 22 48  1  0  0  0  0
 22 49  1  0  0  0  0
 23 50  1  0  0  0  0
 23 51  1  0  0  0  0
 24 52  1  0  0  0  0
 24 53  1  0  0  0  0
 24 54  1  0  0  0  0
 25 55  1  0  0  0  0
 25 56  1  0  0  0  0
 25 57  1  0  0  0  0
 26 58  1  0  0  0  0
 26 59  1  0  0  0  0
 26 60  1  0  0  0  0
 27 61  1  0  0  0  0
 27 62  1  0  0  0  0
 27 63  1  0  0  0  0
 28 64  1  0  0  0  0
 28 65  1  0  0  0  0
 33 66  1  0  0  0  0
 34 67  1  0  0  0  0
 34 68  1  0  0  0  0
M  CHG  1  34   1
M  END
> <SMILES>
CNC(=O)c1cc(c2c(c(c(cc2n1)C)-c1ccc(cc1)CN1CCNCC1)C)-n1nccc1C

> <FORMATTED_ID>
H3D-004761

> <MOLFORMULA>
C28H32N6O

> <Exact Mass>
468.26

> <XLogP>
3.53

> <TPSA_NOPS>
75.1

> <s_m_source_file>
ligprep_h3d.sdf

> <i_m_source_file_index>
656

> <i_lp_mmshare_version>
55123

> <i_f3d_flags>
0

> <s_epik_input>
W0NIM11jMVtjSF1bY0hdbm4xLWMyW2NIXWMoQyg9TylbTkhdW0NIM10pbmMoYzIzKVtjSF1jKFtDSDNdKWMoYzNbQ0gzXSktYzRbY0hdW2NIXWMoW2NIXVtjSF00KVtDSDJdTjVbQ0gyXVtDSDJdW05IXVtDSDJdW0NIMl01

> <s_epik_cmdline>
J2VwaWtfcHl0aG9uJywgJy1waHQnLCAnMC41JywgJy1waCcsICc3LjUnLCAnLXRuJywgJzgnLCAnLW1hJywgJzUwMCcsICctaW1hZScsICc8aW5maWxlLm1hZT4nLCAnLW9tYWUnLCAnPG91dGZpbGUubWFlPic=

> <r_lp_tautomer_probability>
1

> <r_epik_Ionization_Penalty>
0.0331464

> <r_epik_Ionization_Penalty_Charging>
0.014683

> <r_epik_Ionization_Penalty_Neutral>
0.0184634

> <r_epik_State_Penalty>
0.399827

> <r_epik_Charging_Adjusted_Penalty>
0.41451

> <i_epik_Tot_Q>
1

> <i_epik_Tot_abs_Q>
1

> <s_lp_Force_Field>
S-OPLS

> <r_lp_Energy>
76.5001

> <b_lp_Chiralities_Consistent>
1

> <s_lp_Variant>
ligprep_h3d.sdf:656-1

> <ROCS_ShapeQuery>
_7L13

> <ROCS_TanimotoCombo>
0.736 

> <ROCS_ShapeTanimoto>
0.629 

> <ROCS_ColorTanimoto>
0.107 

> <ROCS_RefTversky>
0.765 

> <ROCS_RefColorTversky>
0.222 

> <ROCS_RefTverskyCombo>
0.987 

> <ROCS_FitTversky>
0.780 

> <ROCS_FitColorTversky>
0.171 

> <ROCS_FitTverskyCombo>
0.951 

> <ROCS_ColorScore>
-2.027

> <ROCS_Overlap>
1268.945

> <ROCS_Rank>
627                 

$$$$
ligprep_h3d.sdf:751_1825
  -OEChem-08212117123D

 68 72  0     0  0  0  0  0  0999 V2000
  -16.4207   -5.0124  -26.3751 C   0  0  0  0  0  0  0  0  0  0  0  0
  -22.6607   -4.2145  -29.0533 C   0  0  0  0  0  0  0  0  0  0  0  0
  -20.6045   -4.5239  -25.4552 C   0  0  0  0  0  0  0  0  0  0  0  0
  -16.9100   -6.3305  -26.3058 C   0  0  0  0  0  0  0  0  0  0  0  0
  -20.6193   -4.6667  -27.8685 C   0  0  0  0  0  0  0  0  0  0  0  0
  -22.0189   -4.4533  -30.2711 C   0  0  0  0  0  0  0  0  0  0  0  0
  -19.9736   -4.9069  -29.0933 C   0  0  0  0  0  0  0  0  0  0  0  0
  -21.9850   -4.3144  -27.8403 C   0  0  0  0  0  0  0  0  0  0  0  0
  -19.9385   -4.7673  -26.6477 C   0  0  0  0  0  0  0  0  0  0  0  0
  -20.6737   -4.8000  -30.2915 C   0  0  0  0  0  0  0  0  0  0  0  0
  -21.9405   -4.1854  -25.5280 C   0  0  0  0  0  0  0  0  0  0  0  0
  -17.5447   -4.2360  -26.5176 C   0  0  0  0  0  0  0  0  0  0  0  0
  -18.3943   -6.0032  -36.5506 C   0  0  0  0  0  0  0  0  0  0  0  0
  -22.6969   -3.9185  -24.3165 C   0  0  0  0  0  0  0  0  0  0  0  0
  -19.6149   -6.6708  -33.2758 C   0  0  0  0  0  0  0  0  0  0  0  0
  -19.7901   -4.2227  -33.7987 C   0  0  0  0  0  0  0  0  0  0  0  0
  -19.4342   -6.3319  -31.7957 C   0  0  0  0  0  0  0  0  0  0  0  0
  -19.5869   -3.9094  -32.3185 C   0  0  0  0  0  0  0  0  0  0  0  0
  -20.6414   -6.2594  -36.0495 C   0  0  0  0  0  0  0  0  0  0  0  0
  -20.4298   -6.2952  -37.5427 C   0  0  0  0  0  0  0  0  0  0  0  0
  -19.1164   -5.5425  -34.1799 C   0  0  0  0  0  0  0  0  0  0  0  0
  -22.8080   -4.3288  -31.5343 C   0  0  0  0  0  0  0  0  0  0  0  0
  -18.5246   -5.2863  -29.2037 C   0  0  0  0  0  0  0  0  0  0  0  0
  -17.6907   -2.7725  -26.6440 C   0  0  0  0  0  0  0  0  0  0  0  0
  -24.9548   -3.9831  -23.2265 C   0  0  0  0  0  0  0  0  0  0  0  0
  -26.0777   -5.0040  -23.2510 C   0  0  0  0  0  0  0  0  0  0  0  0
  -18.2411   -6.3919  -26.3967 N   0  0  0  0  0  0  0  0  0  0  0  0
  -22.6339   -4.0776  -26.6845 N   0  0  0  0  0  0  0  0  0  0  0  0
  -18.5979   -5.1025  -26.5244 N   0  0  0  0  0  0  0  0  0  0  0  0
  -20.0473   -5.0343  -31.4951 N   0  0  0  0  0  0  0  0  0  0  0  0
  -19.3527   -5.8598  -35.5714 N   0  0  0  0  0  0  0  0  0  0  0  0
  -24.0656   -4.2137  -24.3422 N   0  0  0  0  0  0  0  0  0  0  0  0
  -17.1854   -5.8496  -36.4437 O   0  0  0  0  0  0  0  0  0  0  0  0
  -22.1391   -3.4294  -23.3173 O   0  0  0  0  0  0  0  0  0  0  0  0
  -19.0063   -6.3768  -37.7226 O   0  0  0  0  0  0  0  0  0  0  0  0
  -26.9298   -4.7955  -22.1319 O   0  0  0  0  0  0  0  0  0  0  0  0
  -15.3958   -4.6745  -26.3276 H   0  0  0  0  0  0  0  0  0  0  0  0
  -23.7155   -3.9421  -29.0531 H   0  0  0  0  0  0  0  0  0  0  0  0
  -20.1002   -4.5940  -24.4955 H   0  0  0  0  0  0  0  0  0  0  0  0
  -16.3519   -7.2489  -26.1927 H   0  0  0  0  0  0  0  0  0  0  0  0
  -19.0521   -7.5826  -33.5015 H   0  0  0  0  0  0  0  0  0  0  0  0
  -20.6657   -6.8934  -33.4808 H   0  0  0  0  0  0  0  0  0  0  0  0
  -20.8547   -4.2538  -34.0314 H   0  0  0  0  0  0  0  0  0  0  0  0
  -19.3558   -3.4181  -34.3956 H   0  0  0  0  0  0  0  0  0  0  0  0
  -19.8803   -7.1143  -31.1692 H   0  0  0  0  0  0  0  0  0  0  0  0
  -18.3601   -6.3053  -31.5741 H   0  0  0  0  0  0  0  0  0  0  0  0
  -18.5193   -3.7237  -32.1431 H   0  0  0  0  0  0  0  0  0  0  0  0
  -20.1288   -2.9953  -32.0428 H   0  0  0  0  0  0  0  0  0  0  0  0
  -21.4199   -5.5533  -35.7485 H   0  0  0  0  0  0  0  0  0  0  0  0
  -20.8670   -7.2530  -35.6489 H   0  0  0  0  0  0  0  0  0  0  0  0
  -20.9035   -7.1656  -38.0055 H   0  0  0  0  0  0  0  0  0  0  0  0
  -20.7858   -5.3845  -38.0350 H   0  0  0  0  0  0  0  0  0  0  0  0
  -18.0326   -5.4425  -34.0731 H   0  0  0  0  0  0  0  0  0  0  0  0
  -22.7536   -3.3029  -31.9154 H   0  0  0  0  0  0  0  0  0  0  0  0
  -22.4291   -5.0099  -32.3058 H   0  0  0  0  0  0  0  0  0  0  0  0
  -23.8613   -4.5862  -31.3693 H   0  0  0  0  0  0  0  0  0  0  0  0
  -18.4219   -6.3743  -29.1709 H   0  0  0  0  0  0  0  0  0  0  0  0
  -18.0969   -4.9161  -30.1401 H   0  0  0  0  0  0  0  0  0  0  0  0
  -17.9455   -4.8487  -28.3851 H   0  0  0  0  0  0  0  0  0  0  0  0
  -17.6563   -2.4597  -27.7004 H   0  0  0  0  0  0  0  0  0  0  0  0
  -18.6436   -2.4136  -26.2190 H   0  0  0  0  0  0  0  0  0  0  0  0
  -16.8940   -2.2294  -26.1073 H   0  0  0  0  0  0  0  0  0  0  0  0
  -25.3442   -2.9629  -23.3035 H   0  0  0  0  0  0  0  0  0  0  0  0
  -24.3751   -4.0765  -22.3032 H   0  0  0  0  0  0  0  0  0  0  0  0
  -25.6661   -6.0155  -23.1784 H   0  0  0  0  0  0  0  0  0  0  0  0
  -26.6731   -4.9256  -24.1664 H   0  0  0  0  0  0  0  0  0  0  0  0
  -24.4831   -4.5521  -25.2030 H   0  0  0  0  0  0  0  0  0  0  0  0
  -27.6303   -5.4654  -22.1854 H   0  0  0  0  0  0  0  0  0  0  0  0
  1  4  1  0  0  0  0
  1 12  2  0  0  0  0
  2  6  2  0  0  0  0
  2  8  1  0  0  0  0
  3  9  1  0  0  0  0
  3 11  2  0  0  0  0
  4 27  2  0  0  0  0
  5  7  1  0  0  0  0
  5  8  1  0  0  0  0
  5  9  2  0  0  0  0
  6 10  1  0  0  0  0
  6 22  1  0  0  0  0
  7 10  2  0  0  0  0
  7 23  1  0  0  0  0
  8 28  2  0  0  0  0
  9 29  1  0  0  0  0
 10 30  1  0  0  0  0
 11 14  1  0  0  0  0
 11 28  1  0  0  0  0
 12 24  1  0  0  0  0
 12 29  1  0  0  0  0
 13 31  1  0  0  0  0
 13 33  2  0  0  0  0
 13 35  1  0  0  0  0
 14 32  1  0  0  0  0
 14 34  2  0  0  0  0
 15 17  1  0  0  0  0
 15 21  1  0  0  0  0
 16 18  1  0  0  0  0
 16 21  1  0  0  0  0
 17 30  1  0  0  0  0
 18 30  1  0  0  0  0
 19 20  1  0  0  0  0
 19 31  1  0  0  0  0
 20 35  1  0  0  0  0
 21 31  1  0  0  0  0
 25 26  1  0  0  0  0
 25 32  1  0  0  0  0
 26 36  1  0  0  0  0
 27 29  1  0  0  0  0
  1 37  1  0  0  0  0
  2 38  1  0  0  0  0
  3 39  1  0  0  0  0
  4 40  1  0  0  0  0
 15 41  1  0  0  0  0
 15 42  1  0  0  0  0
 16 43  1  0  0  0  0
 16 44  1  0  0  0  0
 17 45  1  0  0  0  0
 17 46  1  0  0  0  0
 18 47  1  0  0  0  0
 18 48  1  0  0  0  0
 19 49  1  0  0  0  0
 19 50  1  0  0  0  0
 20 51  1  0  0  0  0
 20 52  1  0  0  0  0
 21 53  1  0  0  0  0
 22 54  1  0  0  0  0
 22 55  1  0  0  0  0
 22 56  1  0  0  0  0
 23 57  1  0  0  0  0
 23 58  1  0  0  0  0
 23 59  1  0  0  0  0
 24 60  1  0  0  0  0
 24 61  1  0  0  0  0
 24 62  1  0  0  0  0
 25 63  1  0  0  0  0
 25 64  1  0  0  0  0
 26 65  1  0  0  0  0
 26 66  1  0  0  0  0
 32 67  1  0  0  0  0
 36 68  1  0  0  0  0
M  END
> <SMILES>
Cc1cc2nc(cc(c2c(c1N1CCC(CC1)N1CCOC1=O)C)-n1nccc1C)C(=O)NCCO

> <FORMATTED_ID>
H3D-005030

> <MOLFORMULA>
C26H32N6O4

> <Exact Mass>
492.25

> <XLogP>
1.69

> <TPSA_NOPS>
112.8

> <s_m_source_file>
ligprep_h3d.sdf

> <i_m_source_file_index>
751

> <i_lp_mmshare_version>
55123

> <i_f3d_flags>
0

> <s_epik_input>
W09IXVtDSDJdW0NIMl1bTkhdQyg9TyljKG4xKVtjSF1jKC1uMm5bY0hdW2NIXWMyW0NIM10pYyhjMTMpYyhbQ0gzXSljKGMoW0NIM10pW2NIXTMpTjRbQ0gyXVtDSDJdW0NIXShbQ0gyXVtDSDJdNClONVtDSDJdW0NIMl1PQzU9Tw==

> <s_epik_cmdline>
J2VwaWtfcHl0aG9uJywgJy1waHQnLCAnMC41JywgJy1waCcsICc3LjUnLCAnLXRuJywgJzgnLCAnLW1hJywgJzUwMCcsICctaW1hZScsICc8aW5maWxlLm1hZT4nLCAnLW9tYWUnLCAnPG91dGZpbGUubWFlPic=

> <r_lp_tautomer_probability>
1

> <r_epik_Ionization_Penalty>
6.51743e-05

> <r_epik_Ionization_Penalty_Charging>
0

> <r_epik_Ionization_Penalty_Neutral>
6.51743e-05

> <r_epik_State_Penalty>
-0

> <r_epik_Charging_Adjusted_Penalty>
0

> <i_epik_Tot_Q>
0

> <i_epik_Tot_abs_Q>
0

> <s_epik_Chemistry_Notes>
This compound has an ester and may undergo hydrolysis at high or low pH.

> <s_lp_Force_Field>
S-OPLS

> <r_lp_Energy>
54.8573

> <b_lp_Chiralities_Consistent>
1

> <s_lp_Variant>
ligprep_h3d.sdf:751-1

> <ROCS_ShapeQuery>
_7L13

> <ROCS_TanimotoCombo>
0.775 

> <ROCS_ShapeTanimoto>
0.615 

> <ROCS_ColorTanimoto>
0.160 

> <ROCS_RefTversky>
0.765 

> <ROCS_RefColorTversky>
0.316 

> <ROCS_RefTverskyCombo>
1.081 

> <ROCS_FitTversky>
0.759 

> <ROCS_FitColorTversky>
0.244 

> <ROCS_FitTverskyCombo>
1.003 

> <ROCS_ColorScore>
-2.893

> <ROCS_Overlap>
1270.794

> <ROCS_Rank>
628                 

$$$$
ligprep_h3d.sdf:5326_828
  -OEChem-08212117123D

 63 68  0     0  0  0  0  0  0999 V2000
  -19.1579   -4.3801  -35.8118 C   0  0  0  0  0  0  0  0  0  0  0  0
  -20.3176   -3.6492  -35.5542 C   0  0  0  0  0  0  0  0  0  0  0  0
  -18.6814   -5.2883  -34.8663 C   0  0  0  0  0  0  0  0  0  0  0  0
  -21.0008   -3.8263  -34.3510 C   0  0  0  0  0  0  0  0  0  0  0  0
  -19.3645   -5.4653  -33.6632 C   0  0  0  0  0  0  0  0  0  0  0  0
  -23.2088   -3.8929  -28.4289 C   0  0  0  0  0  0  0  0  0  0  0  0
  -20.4548   -4.3464  -28.8067 C   0  0  0  0  0  0  0  0  0  0  0  0
  -14.7683   -4.8103  -24.7338 C   0  0  0  0  0  0  0  0  0  0  0  0
  -15.0809   -5.8766  -25.5436 C   0  0  0  0  0  0  0  0  0  0  0  0
  -22.3753   -4.1694  -27.3520 C   0  0  0  0  0  0  0  0  0  0  0  0
  -20.5243   -4.7344  -33.4055 C   0  0  0  0  0  0  0  0  0  0  0  0
  -21.0045   -4.3938  -27.5307 C   0  0  0  0  0  0  0  0  0  0  0  0
  -22.6540   -3.8363  -29.7067 C   0  0  0  0  0  0  0  0  0  0  0  0
  -21.2855   -4.0634  -29.8945 C   0  0  0  0  0  0  0  0  0  0  0  0
  -16.8409   -4.5717  -25.1981 C   0  0  0  0  0  0  0  0  0  0  0  0
  -18.2089   -4.2063  -25.3655 C   0  0  0  0  0  0  0  0  0  0  0  0
  -18.5258   -6.1683  -26.7759 C   0  0  0  0  0  0  0  0  0  0  0  0
  -17.2389   -6.5191  -26.6239 C   0  0  0  0  0  0  0  0  0  0  0  0
  -19.0411   -4.9603  -26.1218 C   0  0  0  0  0  0  0  0  0  0  0  0
  -24.6963   -4.6162  -23.7569 C   0  0  0  0  0  0  0  0  0  0  0  0
  -24.0006   -5.8565  -24.2533 C   0  0  0  0  0  0  0  0  0  0  0  0
  -23.9675   -3.3049  -23.9036 C   0  0  0  0  0  0  0  0  0  0  0  0
  -23.5370   -5.6463  -25.6935 C   0  0  0  0  0  0  0  0  0  0  0  0
  -23.5541   -3.1289  -25.3620 C   0  0  0  0  0  0  0  0  0  0  0  0
  -21.3247   -4.4033  -25.2460 C   0  0  0  0  0  0  0  0  0  0  0  0
  -22.7441   -4.3314  -25.8955 C   0  0  0  0  0  0  0  0  0  0  0  0
  -23.6101   -2.1754  -31.1148 C   0  0  0  0  0  0  0  0  0  0  0  0
  -21.2585   -4.9252  -32.1109 C   0  0  0  0  0  0  0  0  0  0  0  0
  -15.8601   -4.0068  -24.5236 N   0  0  0  0  0  0  0  0  0  0  0  0
  -25.8613   -4.6993  -23.2038 N   0  0  0  0  0  0  0  0  0  0  0  0
  -16.4105   -5.7249  -25.8420 N   0  0  0  0  0  0  0  0  0  0  0  0
  -20.3482   -4.6563  -26.3125 N   0  0  0  0  0  0  0  0  0  0  0  0
  -26.2668   -3.4140  -22.8420 O   0  0  0  0  0  0  0  0  0  0  0  0
  -23.4567   -3.5505  -30.7706 O   0  0  0  0  0  0  0  0  0  0  0  0
  -20.7464   -4.0092  -31.1461 O   0  0  0  0  0  0  0  0  0  0  0  0
  -18.6268   -4.2431  -36.7493 H   0  0  0  0  0  0  0  0  0  0  0  0
  -20.6894   -2.9429  -36.2907 H   0  0  0  0  0  0  0  0  0  0  0  0
  -17.7791   -5.8583  -35.0670 H   0  0  0  0  0  0  0  0  0  0  0  0
  -21.9034   -3.2523  -34.1588 H   0  0  0  0  0  0  0  0  0  0  0  0
  -18.9858   -6.1750  -32.9323 H   0  0  0  0  0  0  0  0  0  0  0  0
  -24.2689   -3.7128  -28.2810 H   0  0  0  0  0  0  0  0  0  0  0  0
  -19.3979   -4.5298  -28.9737 H   0  0  0  0  0  0  0  0  0  0  0  0
  -13.8100   -4.5808  -24.2912 H   0  0  0  0  0  0  0  0  0  0  0  0
  -14.4930   -6.7019  -25.9212 H   0  0  0  0  0  0  0  0  0  0  0  0
  -18.5652   -3.3082  -24.8703 H   0  0  0  0  0  0  0  0  0  0  0  0
  -19.1949   -6.7704  -27.3813 H   0  0  0  0  0  0  0  0  0  0  0  0
  -16.8118   -7.4006  -27.0865 H   0  0  0  0  0  0  0  0  0  0  0  0
  -23.1503   -6.0640  -23.5909 H   0  0  0  0  0  0  0  0  0  0  0  0
  -24.6815   -6.7157  -24.1970 H   0  0  0  0  0  0  0  0  0  0  0  0
  -24.6066   -2.4760  -23.5934 H   0  0  0  0  0  0  0  0  0  0  0  0
  -23.0975   -3.3250  -23.2444 H   0  0  0  0  0  0  0  0  0  0  0  0
  -22.9362   -6.5113  -26.0133 H   0  0  0  0  0  0  0  0  0  0  0  0
  -24.4254   -5.6437  -26.3446 H   0  0  0  0  0  0  0  0  0  0  0  0
  -24.4624   -3.0077  -25.9629 H   0  0  0  0  0  0  0  0  0  0  0  0
  -22.9856   -2.1995  -25.4659 H   0  0  0  0  0  0  0  0  0  0  0  0
  -21.0696   -3.4869  -24.7025 H   0  0  0  0  0  0  0  0  0  0  0  0
  -21.2672   -5.2312  -24.5269 H   0  0  0  0  0  0  0  0  0  0  0  0
  -24.2737   -2.0870  -31.9785 H   0  0  0  0  0  0  0  0  0  0  0  0
  -22.6325   -1.7458  -31.3475 H   0  0  0  0  0  0  0  0  0  0  0  0
  -24.0472   -1.6433  -30.2665 H   0  0  0  0  0  0  0  0  0  0  0  0
  -22.3315   -4.7462  -32.2390 H   0  0  0  0  0  0  0  0  0  0  0  0
  -21.1300   -5.9475  -31.7393 H   0  0  0  0  0  0  0  0  0  0  0  0
  -27.1362   -3.5908  -22.4441 H   0  0  0  0  0  0  0  0  0  0  0  0
  1  2  2  0  0  0  0
  1  3  1  0  0  0  0
  2  4  1  0  0  0  0
  3  5  2  0  0  0  0
  4 11  2  0  0  0  0
  5 11  1  0  0  0  0
  6 10  1  0  0  0  0
  6 13  2  0  0  0  0
  7 12  1  0  0  0  0
  7 14  2  0  0  0  0
  8  9  2  0  0  0  0
  8 29  1  0  0  0  0
  9 31  1  0  0  0  0
 10 12  2  0  0  0  0
 10 26  1  0  0  0  0
 11 28  1  0  0  0  0
 12 32  1  0  0  0  0
 13 14  1  0  0  0  0
 13 34  1  0  0  0  0
 14 35  1  0  0  0  0
 15 16  1  0  0  0  0
 15 29  2  0  0  0  0
 15 31  1  0  0  0  0
 16 19  2  0  0  0  0
 17 18  2  0  0  0  0
 17 19  1  0  0  0  0
 18 31  1  0  0  0  0
 19 32  1  0  0  0  0
 20 21  1  0  0  0  0
 20 22  1  0  0  0  0
 20 30  2  0  0  0  0
 21 23  1  0  0  0  0
 22 24  1  0  0  0  0
 23 26  1  0  0  0  0
 24 26  1  0  0  0  0
 25 26  1  0  0  0  0
 25 32  1  0  0  0  0
 27 34  1  0  0  0  0
 28 35  1  0  0  0  0
 30 33  1  0  0  0  0
  1 36  1  0  0  0  0
  2 37  1  0  0  0  0
  3 38  1  0  0  0  0
  4 39  1  0  0  0  0
  5 40  1  0  0  0  0
  6 41  1  0  0  0  0
  7 42  1  0  0  0  0
  8 43  1  0  0  0  0
  9 44  1  0  0  0  0
 16 45  1  0  0  0  0
 17 46  1  0  0  0  0
 18 47  1  0  0  0  0
 21 48  1  0  0  0  0
 21 49  1  0  0  0  0
 22 50  1  0  0  0  0
 22 51  1  0  0  0  0
 23 52  1  0  0  0  0
 23 53  1  0  0  0  0
 24 54  1  0  0  0  0
 24 55  1  0  0  0  0
 25 56  1  0  0  0  0
 25 57  1  0  0  0  0
 27 58  1  0  0  0  0
 27 59  1  0  0  0  0
 27 60  1  0  0  0  0
 28 61  1  0  0  0  0
 28 62  1  0  0  0  0
 33 63  1  0  0  0  0
M  END
> <SMILES>
COc1cc2c(cc1OCc1ccccc1)N(CC12CCC(=NO)CC1)c1ccn2ccnc2c1

> <FORMATTED_ID>
H3D-014894

> <MOLFORMULA>
C28H28N4O3

> <Exact Mass>
468.22

> <XLogP>
6.71

> <TPSA_NOPS>
71.6

> <s_m_source_file>
ligprep_h3d.sdf

> <i_m_source_file_index>
5326

> <i_lp_mmshare_version>
55123

> <i_f3d_flags>
0

> <s_epik_input>
W2NIXTFbY0hdW2NIXVtjSF1bY0hdYzFbQ0gyXU9jKGMoW2NIXTIpT1tDSDNdKVtjSF1jKGMyW0NAQF0zNFtDSDJdW0NIMl1DKD1OW09IXSlbQ0gyXVtDSDJdNClOKFtDSDJdMyljKFtjSF1bY0hdNSlbY0hdYyhuNTYpbltjSF1bY0hdNg==

> <s_epik_cmdline>
J2VwaWtfcHl0aG9uJywgJy1waHQnLCAnMC41JywgJy1waCcsICc3LjUnLCAnLXRuJywgJzgnLCAnLW1hJywgJzUwMCcsICctaW1hZScsICc8aW5maWxlLm1hZT4nLCAnLW9tYWUnLCAnPG91dGZpbGUubWFlPic=

> <r_lp_tautomer_probability>
1

> <r_epik_Ionization_Penalty>
0.502306

> <r_epik_Ionization_Penalty_Charging>
0.502302

> <r_epik_Ionization_Penalty_Neutral>
4.09626e-06

> <r_epik_State_Penalty>
0.508884

> <r_epik_Charging_Adjusted_Penalty>
1.01119

> <i_epik_Tot_Q>
0

> <i_epik_Tot_abs_Q>
0

> <s_epik_Chemistry_Notes>
This compound has an imine and may undergo hydrolysis.

> <s_lp_Force_Field>
S-OPLS

> <r_lp_Energy>
67.3202

> <b_lp_Chiralities_Consistent>
1

> <s_lp_Variant>
ligprep_h3d.sdf:5326-2

> <ROCS_ShapeQuery>
_7L13

> <ROCS_TanimotoCombo>
0.699 

> <ROCS_ShapeTanimoto>
0.625 

> <ROCS_ColorTanimoto>
0.073 

> <ROCS_RefTversky>
0.765 

> <ROCS_RefColorTversky>
0.143 

> <ROCS_RefTverskyCombo>
0.908 

> <ROCS_FitTversky>
0.774 

> <ROCS_FitColorTversky>
0.130 

> <ROCS_FitTverskyCombo>
0.904 

> <ROCS_ColorScore>
-1.297

> <ROCS_Overlap>
1269.292

> <ROCS_Rank>
629                 

$$$$
ligprep_h3d.sdf:470_1988
  -OEChem-08212117123D

 44 47  0     0  0  0  0  0  0999 V2000
  -18.5215   -5.7248  -25.5805 C   0  0  0  0  0  0  0  0  0  0  0  0
  -17.9767   -3.4873  -26.3110 C   0  0  0  0  0  0  0  0  0  0  0  0
  -22.7508   -2.9754  -30.1524 C   0  0  0  0  0  0  0  0  0  0  0  0
  -21.5755   -4.9662  -30.8540 C   0  0  0  0  0  0  0  0  0  0  0  0
  -17.2964   -5.8071  -24.9187 C   0  0  0  0  0  0  0  0  0  0  0  0
  -16.7516   -3.5695  -25.6491 C   0  0  0  0  0  0  0  0  0  0  0  0
  -23.2051   -2.7836  -31.4571 C   0  0  0  0  0  0  0  0  0  0  0  0
  -22.0298   -4.7745  -32.1589 C   0  0  0  0  0  0  0  0  0  0  0  0
  -22.2707   -4.4380  -27.4489 C   0  0  0  0  0  0  0  0  0  0  0  0
  -18.8617   -4.5649  -26.2767 C   0  0  0  0  0  0  0  0  0  0  0  0
  -21.4096   -4.5870  -26.3893 C   0  0  0  0  0  0  0  0  0  0  0  0
  -21.9360   -4.0666  -29.8508 C   0  0  0  0  0  0  0  0  0  0  0  0
  -16.4115   -4.7294  -24.9530 C   0  0  0  0  0  0  0  0  0  0  0  0
  -22.8446   -3.6832  -32.4604 C   0  0  0  0  0  0  0  0  0  0  0  0
  -20.1273   -4.4797  -26.9601 C   0  0  0  0  0  0  0  0  0  0  0  0
  -23.2126   -3.9532  -23.0985 C   0  0  0  0  0  0  0  0  0  0  0  0
  -24.2562   -4.8084  -25.3081 C   0  0  0  0  0  0  0  0  0  0  0  0
  -25.6096   -4.5972  -23.2342 C   0  0  0  0  0  0  0  0  0  0  0  0
  -23.1010   -4.1402  -24.5951 C   0  0  0  0  0  0  0  0  0  0  0  0
  -21.7757   -4.8148  -24.9498 C   0  0  0  0  0  0  0  0  0  0  0  0
  -20.1656   -4.2783  -28.2799 N   0  0  0  0  0  0  0  0  0  0  0  0
  -21.4824   -4.2578  -28.5473 N   0  0  0  0  0  0  0  0  0  0  0  0
  -24.4785   -4.1425  -22.5702 N   0  0  0  0  0  0  0  0  0  0  0  0
  -25.4238   -4.9177  -24.5721 N   0  0  0  0  0  0  0  0  0  0  0  0
  -22.2573   -3.6062  -22.4032 O   0  0  0  0  0  0  0  0  0  0  0  0
  -24.1807   -5.1816  -26.4791 O   0  0  0  0  0  0  0  0  0  0  0  0
  -26.6975   -4.7269  -22.6701 O   0  0  0  0  0  0  0  0  0  0  0  0
  -23.0978   -2.8020  -25.0936 O   0  0  0  0  0  0  0  0  0  0  0  0
  -14.8992   -4.8304  -24.1378 Cl  0  0  0  0  0  0  0  0  0  0  0  0
  -23.4071   -3.4478  -34.0696 Cl  0  0  0  0  0  0  0  0  0  0  0  0
  -19.2000   -6.5741  -25.5436 H   0  0  0  0  0  0  0  0  0  0  0  0
  -18.2274   -2.5763  -26.8495 H   0  0  0  0  0  0  0  0  0  0  0  0
  -23.0398   -2.2665  -29.3801 H   0  0  0  0  0  0  0  0  0  0  0  0
  -20.9412   -5.8211  -30.6326 H   0  0  0  0  0  0  0  0  0  0  0  0
  -17.0446   -6.7171  -24.3801 H   0  0  0  0  0  0  0  0  0  0  0  0
  -16.0715   -2.7224  -25.6856 H   0  0  0  0  0  0  0  0  0  0  0  0
  -23.8391   -1.9287  -31.6782 H   0  0  0  0  0  0  0  0  0  0  0  0
  -21.7405   -5.4832  -32.9306 H   0  0  0  0  0  0  0  0  0  0  0  0
  -23.3511   -4.4467  -27.5078 H   0  0  0  0  0  0  0  0  0  0  0  0
  -21.8506   -5.8866  -24.7459 H   0  0  0  0  0  0  0  0  0  0  0  0
  -20.9882   -4.4293  -24.2961 H   0  0  0  0  0  0  0  0  0  0  0  0
  -24.5926   -3.9224  -21.5793 H   0  0  0  0  0  0  0  0  0  0  0  0
  -26.2407   -5.2746  -25.0700 H   0  0  0  0  0  0  0  0  0  0  0  0
  -23.0271   -2.8578  -26.0620 H   0  0  0  0  0  0  0  0  0  0  0  0
  1  5  1  0  0  0  0
  1 10  2  0  0  0  0
  2  6  2  0  0  0  0
  2 10  1  0  0  0  0
  3  7  1  0  0  0  0
  3 12  2  0  0  0  0
  4  8  2  0  0  0  0
  4 12  1  0  0  0  0
  5 13  2  0  0  0  0
  6 13  1  0  0  0  0
  7 14  2  0  0  0  0
  8 14  1  0  0  0  0
  9 11  2  0  0  0  0
  9 22  1  0  0  0  0
 10 15  1  0  0  0  0
 11 15  1  0  0  0  0
 11 20  1  0  0  0  0
 12 22  1  0  0  0  0
 13 29  1  0  0  0  0
 14 30  1  0  0  0  0
 15 21  2  0  0  0  0
 16 19  1  0  0  0  0
 16 23  1  0  0  0  0
 16 25  2  0  0  0  0
 17 19  1  0  0  0  0
 17 24  1  0  0  0  0
 17 26  2  0  0  0  0
 18 23  1  0  0  0  0
 18 24  1  0  0  0  0
 18 27  2  0  0  0  0
 19 20  1  0  0  0  0
 19 28  1  0  0  0  0
 21 22  1  0  0  0  0
  1 31  1  0  0  0  0
  2 32  1  0  0  0  0
  3 33  1  0  0  0  0
  4 34  1  0  0  0  0
  5 35  1  0  0  0  0
  6 36  1  0  0  0  0
  7 37  1  0  0  0  0
  8 38  1  0  0  0  0
  9 39  1  0  0  0  0
 20 40  1  0  0  0  0
 20 41  1  0  0  0  0
 23 42  1  0  0  0  0
 24 43  1  0  0  0  0
 28 44  1  0  0  0  0
M  END
> <SMILES>
OC1(Cc2cn(nc2-c2ccc(cc2)Cl)-c2ccc(cc2)Cl)C(=O)NC(=O)NC1=O

> <FORMATTED_ID>
H3D-004036

> <MOLFORMULA>
C20H14Cl2N4O4

> <Exact Mass>
444.04

> <XLogP>
2.97

> <TPSA_NOPS>
113.3

> <s_m_source_file>
ligprep_h3d.sdf

> <i_m_source_file_index>
470

> <i_lp_mmshare_version>
55123

> <i_f3d_flags>
0

> <s_epik_input>
Tz1DMVtOSF1DKD1PKVtOSF1DKD1PKUMxKFtPSF0pW0NIMl1jMltjSF1uKC1jM1tjSF1bY0hdYyhDbClbY0hdW2NIXTMpbmMyLWM0W2NIXVtjSF1jKENsKVtjSF1bY0hdNA==

> <s_epik_cmdline>
J2VwaWtfcHl0aG9uJywgJy1waHQnLCAnMC41JywgJy1waCcsICc3LjUnLCAnLXRuJywgJzgnLCAnLW1hJywgJzUwMCcsICctaW1hZScsICc8aW5maWxlLm1hZT4nLCAnLW9tYWUnLCAnPG91dGZpbGUubWFlPic=

> <r_lp_tautomer_probability>
1

> <r_epik_Ionization_Penalty>
0.528681

> <r_epik_Ionization_Penalty_Charging>
0

> <r_epik_Ionization_Penalty_Neutral>
0.528681

> <r_epik_State_Penalty>
0.517157

> <r_epik_Charging_Adjusted_Penalty>
0.517157

> <i_epik_Tot_Q>
0

> <i_epik_Tot_abs_Q>
0

> <s_lp_Force_Field>
S-OPLS

> <r_lp_Energy>
42.2769

> <b_lp_Chiralities_Consistent>
1

> <s_lp_Variant>
ligprep_h3d.sdf:470-2

> <ROCS_ShapeQuery>
_7L13

> <ROCS_TanimotoCombo>
1.046 

> <ROCS_ShapeTanimoto>
0.704 

> <ROCS_ColorTanimoto>
0.342 

> <ROCS_RefTversky>
0.765 

> <ROCS_RefColorTversky>
0.586 

> <ROCS_RefTverskyCombo>
1.350 

> <ROCS_FitTversky>
0.898 

> <ROCS_FitColorTversky>
0.452 

> <ROCS_FitTverskyCombo>
1.350 

> <ROCS_ColorScore>
-5.359

> <ROCS_Overlap>
1259.701

> <ROCS_Rank>
630                 

$$$$
ligprep_h3d.sdf:2364_1746
  -OEChem-08212117123D

 65 68  0     0  0  0  0  0  0999 V2000
  -16.4883   -5.3866  -26.2226 C   0  0  0  0  0  0  0  0  0  0  0  0
  -17.0029   -4.7840  -25.0724 C   0  0  0  0  0  0  0  0  0  0  0  0
  -22.6733   -4.7320  -26.1967 C   0  0  0  0  0  0  0  0  0  0  0  0
  -22.7826   -3.5194  -24.1099 C   0  0  0  0  0  0  0  0  0  0  0  0
  -23.7425   -5.5297  -25.7892 C   0  0  0  0  0  0  0  0  0  0  0  0
  -23.8518   -4.3171  -23.7024 C   0  0  0  0  0  0  0  0  0  0  0  0
  -23.3238   -2.6806  -31.7577 C   0  0  0  0  0  0  0  0  0  0  0  0
  -22.9918   -3.7853  -32.5418 C   0  0  0  0  0  0  0  0  0  0  0  0
  -17.1980   -5.3609  -27.4297 C   0  0  0  0  0  0  0  0  0  0  0  0
  -18.2420   -4.1350  -25.0854 C   0  0  0  0  0  0  0  0  0  0  0  0
  -22.1934   -3.7268  -25.3570 C   0  0  0  0  0  0  0  0  0  0  0  0
  -24.3318   -5.3223  -24.5420 C   0  0  0  0  0  0  0  0  0  0  0  0
  -22.8221   -2.5697  -30.4609 C   0  0  0  0  0  0  0  0  0  0  0  0
  -22.1582   -4.7792  -32.0292 C   0  0  0  0  0  0  0  0  0  0  0  0
  -18.4446   -4.7134  -27.4609 C   0  0  0  0  0  0  0  0  0  0  0  0
  -18.9312   -4.1219  -26.2985 C   0  0  0  0  0  0  0  0  0  0  0  0
  -21.9885   -3.5636  -29.9482 C   0  0  0  0  0  0  0  0  0  0  0  0
  -21.6565   -4.6684  -30.7323 C   0  0  0  0  0  0  0  0  0  0  0  0
  -20.3338   -3.8710  -27.9909 C   0  0  0  0  0  0  0  0  0  0  0  0
  -23.1948   -1.3747  -29.6446 C   0  0  0  0  0  0  0  0  0  0  0  0
  -20.7544   -7.8566  -34.8860 C   0  0  0  0  0  0  0  0  0  0  0  0
  -18.8428   -4.8998  -35.0184 C   0  0  0  0  0  0  0  0  0  0  0  0
  -21.0402   -2.8655  -25.7961 C   0  0  0  0  0  0  0  0  0  0  0  0
  -21.8136   -5.9532  -32.8850 C   0  0  0  0  0  0  0  0  0  0  0  0
  -19.9002   -7.2692  -33.7839 C   0  0  0  0  0  0  0  0  0  0  0  0
  -20.2881   -4.9392  -34.5722 C   0  0  0  0  0  0  0  0  0  0  0  0
  -25.4760   -6.1746  -24.1076 C   0  0  0  0  0  0  0  0  0  0  0  0
  -19.3294   -4.5473  -28.5016 N   0  0  0  0  0  0  0  0  0  0  0  0
  -20.1407   -3.5909  -26.6668 N   0  0  0  0  0  0  0  0  0  0  0  0
  -21.4663   -3.4511  -28.6034 N   0  0  0  0  0  0  0  0  0  0  0  0
  -20.4264   -5.9038  -33.4222 N   0  3  0  0  0  0  0  0  0  0  0  0
  -20.8409   -5.6430  -30.2356 O   0  0  0  0  0  0  0  0  0  0  0  0
  -25.8393   -7.1147  -25.0296 F   0  0  0  0  0  0  0  0  0  0  0  0
  -25.2309   -6.8762  -22.9616 F   0  0  0  0  0  0  0  0  0  0  0  0
  -26.6057   -5.4501  -23.8590 F   0  0  0  0  0  0  0  0  0  0  0  0
  -15.5222   -5.8833  -26.1809 H   0  0  0  0  0  0  0  0  0  0  0  0
  -16.4299   -4.8189  -24.1491 H   0  0  0  0  0  0  0  0  0  0  0  0
  -22.2201   -4.9009  -27.1700 H   0  0  0  0  0  0  0  0  0  0  0  0
  -22.4158   -2.7375  -23.4500 H   0  0  0  0  0  0  0  0  0  0  0  0
  -24.1108   -6.3092  -26.4507 H   0  0  0  0  0  0  0  0  0  0  0  0
  -24.3053   -4.1489  -22.7291 H   0  0  0  0  0  0  0  0  0  0  0  0
  -23.9737   -1.9117  -32.1670 H   0  0  0  0  0  0  0  0  0  0  0  0
  -23.3878   -3.8626  -33.5509 H   0  0  0  0  0  0  0  0  0  0  0  0
  -16.7897   -5.8321  -28.3180 H   0  0  0  0  0  0  0  0  0  0  0  0
  -18.6402   -3.6673  -24.1921 H   0  0  0  0  0  0  0  0  0  0  0  0
  -24.1106   -1.5742  -29.0768 H   0  0  0  0  0  0  0  0  0  0  0  0
  -22.3962   -1.1121  -28.9403 H   0  0  0  0  0  0  0  0  0  0  0  0
  -23.3613   -0.4972  -30.2812 H   0  0  0  0  0  0  0  0  0  0  0  0
  -21.7863   -7.9757  -34.5415 H   0  0  0  0  0  0  0  0  0  0  0  0
  -20.7647   -7.2072  -35.7675 H   0  0  0  0  0  0  0  0  0  0  0  0
  -20.3840   -8.8405  -35.1921 H   0  0  0  0  0  0  0  0  0  0  0  0
  -18.2053   -4.5434  -34.2035 H   0  0  0  0  0  0  0  0  0  0  0  0
  -18.4921   -5.8947  -35.3121 H   0  0  0  0  0  0  0  0  0  0  0  0
  -18.7101   -4.2263  -35.8715 H   0  0  0  0  0  0  0  0  0  0  0  0
  -21.3922   -1.9752  -26.3313 H   0  0  0  0  0  0  0  0  0  0  0  0
  -20.4657   -2.5035  -24.9347 H   0  0  0  0  0  0  0  0  0  0  0  0
  -21.8961   -6.8960  -32.3284 H   0  0  0  0  0  0  0  0  0  0  0  0
  -22.4796   -6.0268  -33.7548 H   0  0  0  0  0  0  0  0  0  0  0  0
  -18.8622   -7.1394  -34.1022 H   0  0  0  0  0  0  0  0  0  0  0  0
  -19.9362   -7.8780  -32.8763 H   0  0  0  0  0  0  0  0  0  0  0  0
  -20.9480   -5.2926  -35.3692 H   0  0  0  0  0  0  0  0  0  0  0  0
  -20.6278   -3.9630  -34.2152 H   0  0  0  0  0  0  0  0  0  0  0  0
  -22.1434   -2.9258  -28.0150 H   0  0  0  0  0  0  0  0  0  0  0  0
  -19.8136   -5.5475  -32.6708 H   0  0  0  0  0  0  0  0  0  0  0  0
  -20.7077   -6.3362  -30.9000 H   0  0  0  0  0  0  0  0  0  0  0  0
  1  2  2  0  0  0  0
  1  9  1  0  0  0  0
  2 10  1  0  0  0  0
  3  5  1  0  0  0  0
  3 11  2  0  0  0  0
  4  6  2  0  0  0  0
  4 11  1  0  0  0  0
  5 12  2  0  0  0  0
  6 12  1  0  0  0  0
  7  8  1  0  0  0  0
  7 13  2  0  0  0  0
  8 14  2  0  0  0  0
  9 15  2  0  0  0  0
 10 16  2  0  0  0  0
 11 23  1  0  0  0  0
 12 27  1  0  0  0  0
 13 17  1  0  0  0  0
 13 20  1  0  0  0  0
 14 18  1  0  0  0  0
 14 24  1  0  0  0  0
 15 16  1  0  0  0  0
 15 28  1  0  0  0  0
 16 29  1  0  0  0  0
 17 18  2  0  0  0  0
 17 30  1  0  0  0  0
 18 32  1  0  0  0  0
 19 28  2  0  0  0  0
 19 29  1  0  0  0  0
 19 30  1  0  0  0  0
 21 25  1  0  0  0  0
 22 26  1  0  0  0  0
 23 29  1  0  0  0  0
 24 31  1  0  0  0  0
 25 31  1  0  0  0  0
 26 31  1  0  0  0  0
 27 33  1  0  0  0  0
 27 34  1  0  0  0  0
 27 35  1  0  0  0  0
  1 36  1  0  0  0  0
  2 37  1  0  0  0  0
  3 38  1  0  0  0  0
  4 39  1  0  0  0  0
  5 40  1  0  0  0  0
  6 41  1  0  0  0  0
  7 42  1  0  0  0  0
  8 43  1  0  0  0  0
  9 44  1  0  0  0  0
 10 45  1  0  0  0  0
 20 46  1  0  0  0  0
 20 47  1  0  0  0  0
 20 48  1  0  0  0  0
 21 49  1  0  0  0  0
 21 50  1  0  0  0  0
 21 51  1  0  0  0  0
 22 52  1  0  0  0  0
 22 53  1  0  0  0  0
 22 54  1  0  0  0  0
 23 55  1  0  0  0  0
 23 56  1  0  0  0  0
 24 57  1  0  0  0  0
 24 58  1  0  0  0  0
 25 59  1  0  0  0  0
 25 60  1  0  0  0  0
 26 61  1  0  0  0  0
 26 62  1  0  0  0  0
 30 63  1  0  0  0  0
 31 64  1  0  0  0  0
 32 65  1  0  0  0  0
M  CHG  1  31   1
M  END
> <SMILES>
CCN(CC)Cc1ccc(c(c1O)Nc1nc2ccccc2n1Cc1ccc(cc1)C(F)(F)F)C

> <FORMATTED_ID>
H3D-005453

> <MOLFORMULA>
C27H29F3N4O

> <Exact Mass>
482.23

> <XLogP>
8

> <TPSA_NOPS>
53.3

> <s_m_source_file>
ligprep_h3d.sdf

> <i_m_source_file_index>
2364

> <i_lp_mmshare_version>
55123

> <i_f3d_flags>
0

> <s_epik_input>
W0NIM11bQ0gyXU4oW0NIMl1bQ0gzXSlbQ0gyXWMxW2NIXVtjSF1jKFtDSDNdKWMoYzFbT0hdKVtOSF1jKG4yKW4oYyhjMjMpW2NIXVtjSF1bY0hdW2NIXTMpW0NIMl1jNFtjSF1bY0hdYyhDKEYpKEYpRilbY0hdW2NIXTQ=

> <s_epik_cmdline>
J2VwaWtfcHl0aG9uJywgJy1waHQnLCAnMC41JywgJy1waCcsICc3LjUnLCAnLXRuJywgJzgnLCAnLW1hJywgJzUwMCcsICctaW1hZScsICc8aW5maWxlLm1hZT4nLCAnLW9tYWUnLCAnPG91dGZpbGUubWFlPic=

> <r_lp_tautomer_probability>
1

> <r_epik_Ionization_Penalty>
0.153891

> <r_epik_Ionization_Penalty_Charging>
0.0451792

> <r_epik_Ionization_Penalty_Neutral>
0.108712

> <r_epik_State_Penalty>
-0

> <r_epik_Charging_Adjusted_Penalty>
0.0451792

> <i_epik_Tot_Q>
1

> <i_epik_Tot_abs_Q>
1

> <s_lp_Force_Field>
S-OPLS

> <r_lp_Energy>
47.8414

> <b_lp_Chiralities_Consistent>
1

> <s_lp_Variant>
ligprep_h3d.sdf:2364-1

> <ROCS_ShapeQuery>
_7L13

> <ROCS_TanimotoCombo>
0.749 

> <ROCS_ShapeTanimoto>
0.635 

> <ROCS_ColorTanimoto>
0.115 

> <ROCS_RefTversky>
0.765 

> <ROCS_RefColorTversky>
0.216 

> <ROCS_RefTverskyCombo>
0.981 

> <ROCS_FitTversky>
0.789 

> <ROCS_FitColorTversky>
0.196 

> <ROCS_FitTverskyCombo>
0.985 

> <ROCS_ColorScore>
-1.957

> <ROCS_Overlap>
1267.924

> <ROCS_Rank>
631                 

$$$$
ligprep_h3d.sdf:4850_529
  -OEChem-08212117123D

 67 72  0     0  0  0  0  0  0999 V2000
  -18.9847   -7.7863  -36.5691 C   0  0  0  0  0  0  0  0  0  0  0  0
  -19.8834   -8.4627  -35.7443 C   0  0  0  0  0  0  0  0  0  0  0  0
  -18.7565   -6.4230  -36.3818 C   0  0  0  0  0  0  0  0  0  0  0  0
  -24.5339   -4.2159  -22.5620 C   0  0  0  0  0  0  0  0  0  0  0  0
  -25.6677   -4.8719  -23.0470 C   0  0  0  0  0  0  0  0  0  0  0  0
  -20.5541   -7.7759  -34.7323 C   0  0  0  0  0  0  0  0  0  0  0  0
  -19.4273   -5.7361  -35.3699 C   0  0  0  0  0  0  0  0  0  0  0  0
  -23.4660   -3.8983  -23.4106 C   0  0  0  0  0  0  0  0  0  0  0  0
  -25.7765   -5.2337  -24.3938 C   0  0  0  0  0  0  0  0  0  0  0  0
  -18.0966   -4.6977  -30.0138 C   0  0  0  0  0  0  0  0  0  0  0  0
  -20.8285   -4.6131  -30.6956 C   0  0  0  0  0  0  0  0  0  0  0  0
  -19.0751   -4.6828  -29.0253 C   0  0  0  0  0  0  0  0  0  0  0  0
  -20.3261   -6.4126  -34.5451 C   0  0  0  0  0  0  0  0  0  0  0  0
  -23.5582   -4.2546  -24.7667 C   0  0  0  0  0  0  0  0  0  0  0  0
  -24.7009   -4.9075  -25.2204 C   0  0  0  0  0  0  0  0  0  0  0  0
  -20.4294   -4.6406  -29.3658 C   0  0  0  0  0  0  0  0  0  0  0  0
  -18.4890   -4.6702  -31.3519 C   0  0  0  0  0  0  0  0  0  0  0  0
  -19.8466   -4.6283  -31.6899 C   0  0  0  0  0  0  0  0  0  0  0  0
  -23.2434   -4.5831  -26.8529 C   0  0  0  0  0  0  0  0  0  0  0  0
  -22.6158   -4.5877  -28.1817 C   0  0  0  0  0  0  0  0  0  0  0  0
  -18.0884   -3.4648  -27.0504 C   0  0  0  0  0  0  0  0  0  0  0  0
  -18.1459   -5.9902  -27.0790 C   0  0  0  0  0  0  0  0  0  0  0  0
  -20.3403   -4.6773  -27.0233 C   0  0  0  0  0  0  0  0  0  0  0  0
  -17.7872   -3.4974  -25.5562 C   0  0  0  0  0  0  0  0  0  0  0  0
  -17.8454   -6.0051  -25.5844 C   0  0  0  0  0  0  0  0  0  0  0  0
  -18.8691   -4.7052  -27.5268 C   0  0  0  0  0  0  0  0  0  0  0  0
  -16.6234   -4.7992  -23.7780 C   0  0  0  0  0  0  0  0  0  0  0  0
  -17.0488   -3.4205  -32.7730 C   0  0  0  0  0  0  0  0  0  0  0  0
  -21.0474   -5.6730  -33.4569 C   0  0  0  0  0  0  0  0  0  0  0  0
  -22.6643   -4.0616  -25.7948 N   0  0  0  0  0  0  0  0  0  0  0  0
  -24.4721   -5.1052  -26.5580 N   0  0  0  0  0  0  0  0  0  0  0  0
  -21.2277   -4.6325  -28.2061 N   0  0  0  0  0  0  0  0  0  0  0  0
  -17.0552   -4.7729  -25.2187 N   0  3  0  0  0  0  0  0  0  0  0  0
  -23.3830   -4.5498  -29.1392 O   0  0  0  0  0  0  0  0  0  0  0  0
  -17.5363   -4.6839  -32.3266 O   0  0  0  0  0  0  0  0  0  0  0  0
  -20.2264   -4.6012  -32.9996 O   0  0  0  0  0  0  0  0  0  0  0  0
  -18.4615   -8.3216  -37.3561 H   0  0  0  0  0  0  0  0  0  0  0  0
  -20.0604   -9.5245  -35.8892 H   0  0  0  0  0  0  0  0  0  0  0  0
  -18.0561   -5.8962  -37.0231 H   0  0  0  0  0  0  0  0  0  0  0  0
  -24.4785   -3.9476  -21.5099 H   0  0  0  0  0  0  0  0  0  0  0  0
  -26.4821   -5.1056  -22.3656 H   0  0  0  0  0  0  0  0  0  0  0  0
  -21.2528   -8.3111  -34.0946 H   0  0  0  0  0  0  0  0  0  0  0  0
  -19.2433   -4.6740  -35.2315 H   0  0  0  0  0  0  0  0  0  0  0  0
  -22.5894   -3.3882  -23.0248 H   0  0  0  0  0  0  0  0  0  0  0  0
  -26.6551   -5.7426  -24.7730 H   0  0  0  0  0  0  0  0  0  0  0  0
  -17.0434   -4.7293  -29.7516 H   0  0  0  0  0  0  0  0  0  0  0  0
  -21.8709   -4.5804  -30.9888 H   0  0  0  0  0  0  0  0  0  0  0  0
  -18.6437   -2.5476  -27.2860 H   0  0  0  0  0  0  0  0  0  0  0  0
  -17.1370   -3.3865  -27.5940 H   0  0  0  0  0  0  0  0  0  0  0  0
  -17.1986   -6.0999  -27.6243 H   0  0  0  0  0  0  0  0  0  0  0  0
  -18.7413   -6.8761  -27.3356 H   0  0  0  0  0  0  0  0  0  0  0  0
  -20.6049   -5.5673  -26.4403 H   0  0  0  0  0  0  0  0  0  0  0  0
  -20.5596   -3.7984  -26.4059 H   0  0  0  0  0  0  0  0  0  0  0  0
  -17.1342   -2.6624  -25.2810 H   0  0  0  0  0  0  0  0  0  0  0  0
  -18.6952   -3.4622  -24.9451 H   0  0  0  0  0  0  0  0  0  0  0  0
  -18.7550   -6.0109  -24.9746 H   0  0  0  0  0  0  0  0  0  0  0  0
  -17.2324   -6.8755  -25.3275 H   0  0  0  0  0  0  0  0  0  0  0  0
  -17.5227   -4.7853  -23.1596 H   0  0  0  0  0  0  0  0  0  0  0  0
  -16.0507   -5.7146  -23.6176 H   0  0  0  0  0  0  0  0  0  0  0  0
  -16.0091   -3.9151  -23.5971 H   0  0  0  0  0  0  0  0  0  0  0  0
  -16.2955   -3.5735  -33.5497 H   0  0  0  0  0  0  0  0  0  0  0  0
  -16.6133   -2.8784  -31.9298 H   0  0  0  0  0  0  0  0  0  0  0  0
  -17.8806   -2.8435  -33.1841 H   0  0  0  0  0  0  0  0  0  0  0  0
  -21.9960   -5.2654  -33.8225 H   0  0  0  0  0  0  0  0  0  0  0  0
  -21.2692   -6.3395  -32.6164 H   0  0  0  0  0  0  0  0  0  0  0  0
  -25.1017   -5.5567  -27.2082 H   0  0  0  0  0  0  0  0  0  0  0  0
  -16.1924   -4.7866  -25.7797 H   0  0  0  0  0  0  0  0  0  0  0  0
  1  2  2  0  0  0  0
  1  3  1  0  0  0  0
  2  6  1  0  0  0  0
  3  7  2  0  0  0  0
  4  5  2  0  0  0  0
  4  8  1  0  0  0  0
  5  9  1  0  0  0  0
  6 13  2  0  0  0  0
  7 13  1  0  0  0  0
  8 14  2  0  0  0  0
  9 15  2  0  0  0  0
 10 12  1  0  0  0  0
 10 17  2  0  0  0  0
 11 16  1  0  0  0  0
 11 18  2  0  0  0  0
 12 16  2  0  0  0  0
 12 26  1  0  0  0  0
 13 29  1  0  0  0  0
 14 15  1  0  0  0  0
 14 30  1  0  0  0  0
 15 31  1  0  0  0  0
 16 32  1  0  0  0  0
 17 18  1  0  0  0  0
 17 35  1  0  0  0  0
 18 36  1  0  0  0  0
 19 20  1  0  0  0  0
 19 30  2  0  0  0  0
 19 31  1  0  0  0  0
 20 32  1  0  0  0  0
 20 34  2  0  0  0  0
 21 24  1  0  0  0  0
 21 26  1  0  0  0  0
 22 25  1  0  0  0  0
 22 26  1  0  0  0  0
 23 26  1  0  0  0  0
 23 32  1  0  0  0  0
 24 33  1  0  0  0  0
 25 33  1  0  0  0  0
 27 33  1  0  0  0  0
 28 35  1  0  0  0  0
 29 36  1  0  0  0  0
  1 37  1  0  0  0  0
  2 38  1  0  0  0  0
  3 39  1  0  0  0  0
  4 40  1  0  0  0  0
  5 41  1  0  0  0  0
  6 42  1  0  0  0  0
  7 43  1  0  0  0  0
  8 44  1  0  0  0  0
  9 45  1  0  0  0  0
 10 46  1  0  0  0  0
 11 47  1  0  0  0  0
 21 48  1  0  0  0  0
 21 49  1  0  0  0  0
 22 50  1  0  0  0  0
 22 51  1  0  0  0  0
 23 52  1  0  0  0  0
 23 53  1  0  0  0  0
 24 54  1  0  0  0  0
 24 55  1  0  0  0  0
 25 56  1  0  0  0  0
 25 57  1  0  0  0  0
 27 58  1  0  0  0  0
 27 59  1  0  0  0  0
 27 60  1  0  0  0  0
 28 61  1  0  0  0  0
 28 62  1  0  0  0  0
 28 63  1  0  0  0  0
 29 64  1  0  0  0  0
 29 65  1  0  0  0  0
 31 66  1  0  0  0  0
 33 67  1  0  0  0  0
M  CHG  1  33   1
M  END
> <SMILES>
COc1cc2c(cc1OCc1ccccc1)N(CC12CCN(C)CC1)C(=O)c1nc2ccccc2[nH]1

> <FORMATTED_ID>
H3D-007718

> <MOLFORMULA>
C29H30N4O3

> <Exact Mass>
482.23

> <XLogP>
6.26

> <TPSA_NOPS>
70.7

> <s_m_source_file>
ligprep_h3d.sdf

> <i_m_source_file_index>
4850

> <i_lp_mmshare_version>
55123

> <i_f3d_flags>
0

> <s_epik_input>
W2NIXTFbY0hdW2NIXVtjSF1bY0hdYzFbQ0gyXU9jKGMoW2NIXTIpT1tDSDNdKVtjSF1jKGMyQzM0W0NIMl1bQ0gyXU4oW0NIM10pW0NIMl1bQ0gyXTQpTihbQ0gyXTMpQyg9TyljKG41KVtuSF1jKGM1NilbY0hdW2NIXVtjSF1bY0hdNg==

> <s_epik_cmdline>
J2VwaWtfcHl0aG9uJywgJy1waHQnLCAnMC41JywgJy1waCcsICc3LjUnLCAnLXRuJywgJzgnLCAnLW1hJywgJzUwMCcsICctaW1hZScsICc8aW5maWxlLm1hZT4nLCAnLW9tYWUnLCAnPG91dGZpbGUubWFlPic=

> <r_lp_tautomer_probability>
1

> <r_epik_Ionization_Penalty>
0.0151787

> <r_epik_Ionization_Penalty_Charging>
0.0133839

> <r_epik_Ionization_Penalty_Neutral>
0.00179488

> <r_epik_State_Penalty>
0.0104132

> <r_epik_Charging_Adjusted_Penalty>
0.023797

> <i_epik_Tot_Q>
1

> <i_epik_Tot_abs_Q>
1

> <s_lp_Force_Field>
S-OPLS

> <r_lp_Energy>
80.2548

> <b_lp_Chiralities_Consistent>
1

> <s_lp_Variant>
ligprep_h3d.sdf:4850-1

> <ROCS_ShapeQuery>
_7L13

> <ROCS_TanimotoCombo>
0.663 

> <ROCS_ShapeTanimoto>
0.614 

> <ROCS_ColorTanimoto>
0.049 

> <ROCS_RefTversky>
0.765 

> <ROCS_RefColorTversky>
0.112 

> <ROCS_RefTverskyCombo>
0.877 

> <ROCS_FitTversky>
0.757 

> <ROCS_FitColorTversky>
0.080 

> <ROCS_FitTverskyCombo>
0.837 

> <ROCS_ColorScore>
-1.030

> <ROCS_Overlap>
1270.739

> <ROCS_Rank>
632                 

$$$$
ligprep_h3d.sdf:5081_889
  -OEChem-08212117123D

 62 66  0     0  0  0  0  0  0999 V2000
  -19.3029   -5.5613  -34.8320 C   0  0  0  0  0  0  0  0  0  0  0  0
  -20.2675   -6.5119  -34.4984 C   0  0  0  0  0  0  0  0  0  0  0  0
  -19.2552   -4.3464  -34.1483 C   0  0  0  0  0  0  0  0  0  0  0  0
  -21.1847   -6.2477  -33.4812 C   0  0  0  0  0  0  0  0  0  0  0  0
  -20.1723   -4.0821  -33.1311 C   0  0  0  0  0  0  0  0  0  0  0  0
  -18.3832   -3.8647  -26.0324 C   0  0  0  0  0  0  0  0  0  0  0  0
  -18.6875   -6.1733  -25.4151 C   0  0  0  0  0  0  0  0  0  0  0  0
  -23.6759   -3.9660  -27.7809 C   0  0  0  0  0  0  0  0  0  0  0  0
  -20.9749   -4.3546  -28.4746 C   0  0  0  0  0  0  0  0  0  0  0  0
  -17.0199   -4.0212  -25.8262 C   0  0  0  0  0  0  0  0  0  0  0  0
  -17.3165   -6.2714  -25.2246 C   0  0  0  0  0  0  0  0  0  0  0  0
  -22.7309   -4.3072  -26.8207 C   0  0  0  0  0  0  0  0  0  0  0  0
  -21.1371   -5.0327  -32.7976 C   0  0  0  0  0  0  0  0  0  0  0  0
  -19.2221   -4.9551  -25.8235 C   0  0  0  0  0  0  0  0  0  0  0  0
  -21.3799   -4.4860  -27.1521 C   0  0  0  0  0  0  0  0  0  0  0  0
  -23.2620   -3.8217  -29.1035 C   0  0  0  0  0  0  0  0  0  0  0  0
  -21.9205   -4.0191  -29.4487 C   0  0  0  0  0  0  0  0  0  0  0  0
  -23.1058   -3.1340  -24.6416 C   0  0  0  0  0  0  0  0  0  0  0  0
  -24.1179   -5.4207  -25.0051 C   0  0  0  0  0  0  0  0  0  0  0  0
  -21.5689   -5.1707  -24.9653 C   0  0  0  0  0  0  0  0  0  0  0  0
  -23.3935   -3.2516  -23.1482 C   0  0  0  0  0  0  0  0  0  0  0  0
  -24.3536   -5.5422  -23.5052 C   0  0  0  0  0  0  0  0  0  0  0  0
  -22.9304   -4.5004  -25.3371 C   0  0  0  0  0  0  0  0  0  0  0  0
  -24.9543   -4.2319  -21.4718 C   0  0  0  0  0  0  0  0  0  0  0  0
  -24.3779   -2.0984  -30.3038 C   0  0  0  0  0  0  0  0  0  0  0  0
  -22.1235   -4.7477  -31.7034 C   0  0  0  0  0  0  0  0  0  0  0  0
  -16.5316   -5.2055  -25.4330 N   0  3  0  0  0  0  0  0  0  0  0  0
  -20.5998   -4.8273  -26.0241 N   0  0  0  0  0  0  0  0  0  0  0  0
  -24.5718   -4.1661  -22.9251 N   0  3  0  0  0  0  0  0  0  0  0  0
  -15.2648   -5.3232  -25.2481 O   0  5  0  0  0  0  0  0  0  0  0  0
  -24.1773   -3.4884  -30.0567 O   0  0  0  0  0  0  0  0  0  0  0  0
  -21.5183   -3.8834  -30.7449 O   0  0  0  0  0  0  0  0  0  0  0  0
  -18.5879   -5.7678  -35.6231 H   0  0  0  0  0  0  0  0  0  0  0  0
  -20.3041   -7.4584  -35.0299 H   0  0  0  0  0  0  0  0  0  0  0  0
  -18.5036   -3.6065  -34.4070 H   0  0  0  0  0  0  0  0  0  0  0  0
  -21.9329   -6.9942  -33.2283 H   0  0  0  0  0  0  0  0  0  0  0  0
  -20.1278   -3.1327  -32.6040 H   0  0  0  0  0  0  0  0  0  0  0  0
  -18.7772   -2.9046  -26.3512 H   0  0  0  0  0  0  0  0  0  0  0  0
  -19.3222   -7.0375  -25.2450 H   0  0  0  0  0  0  0  0  0  0  0  0
  -24.7150   -3.8090  -27.5097 H   0  0  0  0  0  0  0  0  0  0  0  0
  -19.9359   -4.5037  -28.7543 H   0  0  0  0  0  0  0  0  0  0  0  0
  -16.2999   -3.2285  -25.9650 H   0  0  0  0  0  0  0  0  0  0  0  0
  -16.8207   -7.1775  -24.9097 H   0  0  0  0  0  0  0  0  0  0  0  0
  -23.9331   -2.5839  -25.1112 H   0  0  0  0  0  0  0  0  0  0  0  0
  -22.2136   -2.5102  -24.7834 H   0  0  0  0  0  0  0  0  0  0  0  0
  -23.9628   -6.4206  -25.4303 H   0  0  0  0  0  0  0  0  0  0  0  0
  -25.0366   -5.0392  -25.4703 H   0  0  0  0  0  0  0  0  0  0  0  0
  -21.1978   -4.8510  -23.9854 H   0  0  0  0  0  0  0  0  0  0  0  0
  -21.6737   -6.2645  -24.9329 H   0  0  0  0  0  0  0  0  0  0  0  0
  -22.5449   -3.6604  -22.5902 H   0  0  0  0  0  0  0  0  0  0  0  0
  -23.6563   -2.2726  -22.7334 H   0  0  0  0  0  0  0  0  0  0  0  0
  -25.2570   -6.1283  -23.3069 H   0  0  0  0  0  0  0  0  0  0  0  0
  -23.5037   -5.9958  -22.9840 H   0  0  0  0  0  0  0  0  0  0  0  0
  -24.1164   -4.6687  -20.9254 H   0  0  0  0  0  0  0  0  0  0  0  0
  -25.1562   -3.2140  -21.1329 H   0  0  0  0  0  0  0  0  0  0  0  0
  -25.8454   -4.8572  -21.3889 H   0  0  0  0  0  0  0  0  0  0  0  0
  -25.1318   -1.9715  -31.0847 H   0  0  0  0  0  0  0  0  0  0  0  0
  -23.4347   -1.6430  -30.6157 H   0  0  0  0  0  0  0  0  0  0  0  0
  -24.7247   -1.6204  -29.3846 H   0  0  0  0  0  0  0  0  0  0  0  0
  -23.0223   -4.2651  -32.1022 H   0  0  0  0  0  0  0  0  0  0  0  0
  -22.4312   -5.6746  -31.2076 H   0  0  0  0  0  0  0  0  0  0  0  0
  -25.3755   -3.7521  -23.4173 H   0  0  0  0  0  0  0  0  0  0  0  0
  1  2  2  0  0  0  0
  1  3  1  0  0  0  0
  2  4  1  0  0  0  0
  3  5  2  0  0  0  0
  4 13  2  0  0  0  0
  5 13  1  0  0  0  0
  6 10  1  0  0  0  0
  6 14  2  0  0  0  0
  7 11  2  0  0  0  0
  7 14  1  0  0  0  0
  8 12  1  0  0  0  0
  8 16  2  0  0  0  0
  9 15  1  0  0  0  0
  9 17  2  0  0  0  0
 10 27  2  0  0  0  0
 11 27  1  0  0  0  0
 12 15  2  0  0  0  0
 12 23  1  0  0  0  0
 13 26  1  0  0  0  0
 14 28  1  0  0  0  0
 15 28  1  0  0  0  0
 16 17  1  0  0  0  0
 16 31  1  0  0  0  0
 17 32  1  0  0  0  0
 18 21  1  0  0  0  0
 18 23  1  0  0  0  0
 19 22  1  0  0  0  0
 19 23  1  0  0  0  0
 20 23  1  0  0  0  0
 20 28  1  0  0  0  0
 21 29  1  0  0  0  0
 22 29  1  0  0  0  0
 24 29  1  0  0  0  0
 25 31  1  0  0  0  0
 26 32  1  0  0  0  0
 27 30  1  0  0  0  0
  1 33  1  0  0  0  0
  2 34  1  0  0  0  0
  3 35  1  0  0  0  0
  4 36  1  0  0  0  0
  5 37  1  0  0  0  0
  6 38  1  0  0  0  0
  7 39  1  0  0  0  0
  8 40  1  0  0  0  0
  9 41  1  0  0  0  0
 10 42  1  0  0  0  0
 11 43  1  0  0  0  0
 18 44  1  0  0  0  0
 18 45  1  0  0  0  0
 19 46  1  0  0  0  0
 19 47  1  0  0  0  0
 20 48  1  0  0  0  0
 20 49  1  0  0  0  0
 21 50  1  0  0  0  0
 21 51  1  0  0  0  0
 22 52  1  0  0  0  0
 22 53  1  0  0  0  0
 24 54  1  0  0  0  0
 24 55  1  0  0  0  0
 24 56  1  0  0  0  0
 25 57  1  0  0  0  0
 25 58  1  0  0  0  0
 25 59  1  0  0  0  0
 26 60  1  0  0  0  0
 26 61  1  0  0  0  0
 29 62  1  0  0  0  0
M  CHG  3  27   1  29   1  30  -1
M  END
> <SMILES>
COc1cc2c(cc1OCc1ccccc1)N(CC12CCN(C)CC1)c1cc[n+](cc1)[O-]

> <FORMATTED_ID>
H3D-012476

> <MOLFORMULA>
C26H29N3O3

> <Exact Mass>
431.22

> <XLogP>
6.27

> <TPSA_NOPS>
51.9

> <s_m_source_file>
ligprep_h3d.sdf

> <i_m_source_file_index>
5081

> <i_lp_mmshare_version>
55123

> <i_f3d_flags>
0

> <s_epik_input>
W2NIXTFbY0hdW2NIXVtjSF1bY0hdYzFbQ0gyXU9jKGMoW2NIXTIpT1tDSDNdKVtjSF1jKGMyQzM0W0NIMl1bQ0gyXU4oW0NIM10pW0NIMl1bQ0gyXTQpTihbQ0gyXTMpYzVbY0hdW2NIXVtuK10oW08tXSlbY0hdW2NIXTU=

> <s_epik_cmdline>
J2VwaWtfcHl0aG9uJywgJy1waHQnLCAnMC41JywgJy1waCcsICc3LjUnLCAnLXRuJywgJzgnLCAnLW1hJywgJzUwMCcsICctaW1hZScsICc8aW5maWxlLm1hZT4nLCAnLW9tYWUnLCAnPG91dGZpbGUubWFlPic=

> <r_lp_tautomer_probability>
1

> <r_epik_Ionization_Penalty>
0.00813387

> <r_epik_Ionization_Penalty_Charging>
0.00813386

> <r_epik_Ionization_Penalty_Neutral>
3.07946e-10

> <r_epik_State_Penalty>
-0

> <r_epik_Charging_Adjusted_Penalty>
0.00813386

> <i_epik_Tot_Q>
1

> <i_epik_Tot_abs_Q>
3

> <s_lp_Force_Field>
S-OPLS

> <r_lp_Energy>
70.708

> <b_lp_Chiralities_Consistent>
1

> <s_lp_Variant>
ligprep_h3d.sdf:5081-1

> <ROCS_ShapeQuery>
_7L13

> <ROCS_TanimotoCombo>
0.784 

> <ROCS_ShapeTanimoto>
0.675 

> <ROCS_ColorTanimoto>
0.109 

> <ROCS_RefTversky>
0.765 

> <ROCS_RefColorTversky>
0.206 

> <ROCS_RefTverskyCombo>
0.971 

> <ROCS_FitTversky>
0.852 

> <ROCS_FitColorTversky>
0.187 

> <ROCS_FitTverskyCombo>
1.039 

> <ROCS_ColorScore>
-1.864

> <ROCS_Overlap>
1262.740

> <ROCS_Rank>
633                 

$$$$
ligprep_h3d.sdf:4918_1921
  -OEChem-08212117123D

 60 64  0     1  0  0  0  0  0999 V2000
  -24.8692   -4.7373  -25.2508 C   0  0  0  0  0  0  0  0  0  0  0  0
  -23.6062   -3.8293  -23.4021 C   0  0  0  0  0  0  0  0  0  0  0  0
  -25.7994   -5.2657  -24.3558 C   0  0  0  0  0  0  0  0  0  0  0  0
  -24.5365   -4.3577  -22.5071 C   0  0  0  0  0  0  0  0  0  0  0  0
  -16.9374   -6.2235  -26.3396 C   0  0  0  0  0  0  0  0  0  0  0  0
  -16.9190   -3.8853  -25.7319 C   0  0  0  0  0  0  0  0  0  0  0  0
  -15.0250   -5.2871  -25.1981 C   0  0  0  0  0  0  0  0  0  0  0  0
  -17.5626   -4.9769  -26.3149 C   0  0  0  0  0  0  0  0  0  0  0  0
  -23.7725   -4.0191  -24.7739 C   0  0  0  0  0  0  0  0  0  0  0  0
  -25.6331   -5.0759  -22.9839 C   0  0  0  0  0  0  0  0  0  0  0  0
  -15.6686   -6.3786  -25.7811 C   0  0  0  0  0  0  0  0  0  0  0  0
  -15.6501   -4.0404  -25.1735 C   0  0  0  0  0  0  0  0  0  0  0  0
  -21.1721   -4.9312  -34.3095 C   0  0  0  0  0  0  0  0  0  0  0  0
  -20.7304   -5.7766  -35.2504 C   0  0  0  0  0  0  0  0  0  0  0  0
  -19.3819   -5.5127  -32.8189 C   0  0  0  0  0  0  0  0  0  0  0  0
  -20.4848   -4.7825  -33.0420 C   0  0  0  0  0  0  0  0  0  0  0  0
  -19.5035   -6.5856  -34.9969 C   0  0  0  0  0  0  0  0  0  0  0  0
  -22.0207   -4.5938  -31.2054 C   0  0  0  0  0  0  0  0  0  0  0  0
  -22.5897   -5.3380  -28.9088 C   0  0  0  0  0  0  0  0  0  0  0  0
  -19.7054   -5.7452  -27.5235 C   0  0  0  0  0  0  0  0  0  0  0  0
  -19.8312   -3.8159  -26.7003 C   0  0  0  0  0  0  0  0  0  0  0  0
  -20.5848   -3.9966  -29.2039 C   0  0  0  0  0  0  0  0  0  0  0  0
  -22.1448   -4.8672  -27.5278 C   0  0  1  0  0  0  0  0  0  0  0  0
  -20.6669   -4.5500  -27.7775 C   0  0  0  0  0  0  0  0  0  0  0  0
  -21.0439   -3.8267  -32.0605 C   0  0  0  0  0  0  0  0  0  0  0  0
  -22.9188   -3.6268  -27.0854 C   0  0  0  0  0  0  0  0  0  0  0  0
  -18.9044   -6.3869  -33.7640 N   0  0  0  0  0  0  0  0  0  0  0  0
  -18.8374   -4.8204  -26.8766 N   0  0  0  0  0  0  0  0  0  0  0  0
  -21.7336   -4.6270  -29.8501 N   0  0  0  0  0  0  0  0  0  0  0  0
  -22.8410   -3.4899  -25.6702 N   0  0  0  0  0  0  0  0  0  0  0  0
  -19.0856   -7.3642  -35.8500 O   0  0  0  0  0  0  0  0  0  0  0  0
  -22.9959   -5.1461  -31.7176 O   0  0  0  0  0  0  0  0  0  0  0  0
  -26.5264   -5.5833  -22.1244 F   0  0  0  0  0  0  0  0  0  0  0  0
  -15.0679   -7.5756  -25.8066 F   0  0  0  0  0  0  0  0  0  0  0  0
  -15.0313   -2.9917  -24.6155 F   0  0  0  0  0  0  0  0  0  0  0  0
  -25.0086   -4.8909  -26.3178 H   0  0  0  0  0  0  0  0  0  0  0  0
  -22.7553   -3.2715  -23.0195 H   0  0  0  0  0  0  0  0  0  0  0  0
  -26.6534   -5.8247  -24.7267 H   0  0  0  0  0  0  0  0  0  0  0  0
  -24.4074   -4.2104  -21.4389 H   0  0  0  0  0  0  0  0  0  0  0  0
  -17.4295   -7.0804  -26.7920 H   0  0  0  0  0  0  0  0  0  0  0  0
  -17.3966   -2.9092  -25.7082 H   0  0  0  0  0  0  0  0  0  0  0  0
  -14.0366   -5.4082  -24.7649 H   0  0  0  0  0  0  0  0  0  0  0  0
  -22.0641   -4.3392  -34.4872 H   0  0  0  0  0  0  0  0  0  0  0  0
  -21.2385   -5.8944  -36.1999 H   0  0  0  0  0  0  0  0  0  0  0  0
  -18.8115   -5.4603  -31.8996 H   0  0  0  0  0  0  0  0  0  0  0  0
  -22.3865   -6.4071  -29.0417 H   0  0  0  0  0  0  0  0  0  0  0  0
  -23.6476   -5.1600  -29.1262 H   0  0  0  0  0  0  0  0  0  0  0  0
  -20.0747   -6.5158  -26.8378 H   0  0  0  0  0  0  0  0  0  0  0  0
  -19.2557   -6.2159  -28.4018 H   0  0  0  0  0  0  0  0  0  0  0  0
  -19.4798   -2.8133  -26.9568 H   0  0  0  0  0  0  0  0  0  0  0  0
  -20.2519   -3.8232  -25.6893 H   0  0  0  0  0  0  0  0  0  0  0  0
  -20.7382   -2.9126  -29.2301 H   0  0  0  0  0  0  0  0  0  0  0  0
  -19.6568   -4.2445  -29.7271 H   0  0  0  0  0  0  0  0  0  0  0  0
  -22.2822   -5.6559  -26.7800 H   0  0  0  0  0  0  0  0  0  0  0  0
  -21.5784   -3.0198  -32.5551 H   0  0  0  0  0  0  0  0  0  0  0  0
  -20.2689   -3.4293  -31.4094 H   0  0  0  0  0  0  0  0  0  0  0  0
  -22.4644   -2.7701  -27.5797 H   0  0  0  0  0  0  0  0  0  0  0  0
  -23.9516   -3.7616  -27.4019 H   0  0  0  0  0  0  0  0  0  0  0  0
  -18.0643   -6.9108  -33.5371 H   0  0  0  0  0  0  0  0  0  0  0  0
  -22.0567   -2.9737  -25.2630 H   0  0  0  0  0  0  0  0  0  0  0  0
  1  3  1  0  0  0  0
  1  9  2  0  0  0  0
  2  4  2  0  0  0  0
  2  9  1  0  0  0  0
  3 10  2  0  0  0  0
  4 10  1  0  0  0  0
  5  8  2  0  0  0  0
  5 11  1  0  0  0  0
  6  8  1  0  0  0  0
  6 12  2  0  0  0  0
  7 11  2  0  0  0  0
  7 12  1  0  0  0  0
  8 28  1  0  0  0  0
  9 30  1  0  0  0  0
 10 33  1  0  0  0  0
 11 34  1  0  0  0  0
 12 35  1  0  0  0  0
 13 14  2  0  0  0  0
 13 16  1  0  0  0  0
 14 17  1  0  0  0  0
 15 16  2  0  0  0  0
 15 27  1  0  0  0  0
 16 25  1  0  0  0  0
 17 27  1  0  0  0  0
 17 31  2  0  0  0  0
 18 25  1  0  0  0  0
 18 29  1  0  0  0  0
 18 32  2  0  0  0  0
 19 23  1  0  0  0  0
 19 29  1  0  0  0  0
 20 24  1  0  0  0  0
 20 28  1  0  0  0  0
 21 24  1  0  0  0  0
 21 28  1  0  0  0  0
 22 24  1  0  0  0  0
 22 29  1  0  0  0  0
 23 24  1  0  0  0  0
 23 26  1  0  0  0  0
 26 30  1  0  0  0  0
  1 36  1  0  0  0  0
  2 37  1  0  0  0  0
  3 38  1  0  0  0  0
  4 39  1  0  0  0  0
  5 40  1  0  0  0  0
  6 41  1  0  0  0  0
  7 42  1  0  0  0  0
 13 43  1  0  0  0  0
 14 44  1  0  0  0  0
 15 45  1  0  0  0  0
 19 46  1  0  0  0  0
 19 47  1  0  0  0  0
 20 48  1  0  0  0  0
 20 49  1  0  0  0  0
 21 50  1  0  0  0  0
 21 51  1  0  0  0  0
 22 52  1  0  0  0  0
 22 53  1  0  0  0  0
 23 54  1  0  0  0  0
 25 55  1  0  0  0  0
 25 56  1  0  0  0  0
 26 57  1  0  0  0  0
 26 58  1  0  0  0  0
 27 59  1  0  0  0  0
 30 60  1  0  0  0  0
M  END
> <SMILES>
Oc1ccc(cn1)CC(=O)N1CC(CNc2ccc(cc2)F)C2(C1)CN(C2)c1cc(cc(c1)F)F

> <FORMATTED_ID>
H3D-008379

> <MOLFORMULA>
C26H25F3N4O2

> <Exact Mass>
482.19

> <XLogP>
3.22

> <TPSA_NOPS>
68.7

> <s_m_source_file>
ligprep_h3d.sdf

> <i_m_source_file_index>
4918

> <i_lp_mmshare_version>
55123

> <i_f3d_flags>
0

> <s_epik_input>
W09IXWMxW2NIXVtjSF1jKFtjSF1uMSlbQ0gyXUMoPU8pTihbQ0gyXTIpW0NIMl1bQ0BIXShbQ0gyXVtOSF1jM1tjSF1bY0hdYyhGKVtjSF1bY0hdMylDMjRbQ0gyXU4oW0NIMl00KWM1W2NIXWMoRilbY0hdYyhGKVtjSF01

> <s_epik_cmdline>
J2VwaWtfcHl0aG9uJywgJy1waHQnLCAnMC41JywgJy1waCcsICc3LjUnLCAnLXRuJywgJzgnLCAnLW1hJywgJzUwMCcsICctaW1hZScsICc8aW5maWxlLm1hZT4nLCAnLW9tYWUnLCAnPG91dGZpbGUubWFlPic=

> <r_lp_tautomer_probability>
1

> <r_epik_Ionization_Penalty>
0.00249625

> <r_epik_Ionization_Penalty_Charging>
0.000108659

> <r_epik_Ionization_Penalty_Neutral>
0.00238759

> <r_epik_State_Penalty>
-0

> <r_epik_Charging_Adjusted_Penalty>
0.000108659

> <i_epik_Tot_Q>
0

> <i_epik_Tot_abs_Q>
0

> <s_lp_Force_Field>
S-OPLS

> <r_lp_Energy>
28.9881

> <b_lp_Chiralities_Consistent>
1

> <s_lp_Variant>
ligprep_h3d.sdf:4918-1

> <ROCS_ShapeQuery>
_7L13

> <ROCS_TanimotoCombo>
0.697 

> <ROCS_ShapeTanimoto>
0.634 

> <ROCS_ColorTanimoto>
0.063 

> <ROCS_RefTversky>
0.765 

> <ROCS_RefColorTversky>
0.119 

> <ROCS_RefTverskyCombo>
0.884 

> <ROCS_FitTversky>
0.787 

> <ROCS_FitColorTversky>
0.119 

> <ROCS_FitTverskyCombo>
0.906 

> <ROCS_ColorScore>
-1.073

> <ROCS_Overlap>
1267.905

> <ROCS_Rank>
634                 

$$$$
ligprep_h3d.sdf:3611_1693
  -OEChem-08212117123D

 58 60  0     0  0  0  0  0  0999 V2000
  -23.0253   -2.5457  -31.3256 C   0  0  0  0  0  0  0  0  0  0  0  0
  -22.6623   -2.7919  -30.0016 C   0  0  0  0  0  0  0  0  0  0  0  0
  -24.5503   -5.0252  -25.2467 C   0  0  0  0  0  0  0  0  0  0  0  0
  -22.9305   -4.2157  -23.6474 C   0  0  0  0  0  0  0  0  0  0  0  0
  -22.7335   -3.4846  -32.3151 C   0  0  0  0  0  0  0  0  0  0  0  0
  -25.5147   -5.0832  -24.2406 C   0  0  0  0  0  0  0  0  0  0  0  0
  -23.8949   -4.2737  -22.6413 C   0  0  0  0  0  0  0  0  0  0  0  0
  -22.6149   -4.2854  -27.3130 C   0  0  0  0  0  0  0  0  0  0  0  0
  -21.7155   -4.9161  -30.6563 C   0  0  0  0  0  0  0  0  0  0  0  0
  -20.9166   -4.7153  -25.7045 C   0  0  0  0  0  0  0  0  0  0  0  0
  -23.2582   -4.5914  -24.9501 C   0  0  0  0  0  0  0  0  0  0  0  0
  -22.0074   -3.9771  -29.6669 C   0  0  0  0  0  0  0  0  0  0  0  0
  -22.2596   -4.5307  -25.9914 C   0  0  0  0  0  0  0  0  0  0  0  0
  -21.6305   -4.2328  -28.2936 C   0  0  0  0  0  0  0  0  0  0  0  0
  -22.0786   -4.6698  -31.9804 C   0  0  0  0  0  0  0  0  0  0  0  0
  -25.1870   -4.7075  -22.9379 C   0  0  0  0  0  0  0  0  0  0  0  0
  -20.3157   -4.4306  -27.9035 C   0  0  0  0  0  0  0  0  0  0  0  0
  -21.7666   -5.6686  -33.0350 C   0  0  0  0  0  0  0  0  0  0  0  0
  -20.3346   -8.9938  -36.2031 C   0  0  0  0  0  0  0  0  0  0  0  0
  -18.9034   -7.2837  -37.3111 C   0  0  0  0  0  0  0  0  0  0  0  0
  -26.2384   -6.4187  -21.0092 C   0  0  0  0  0  0  0  0  0  0  0  0
  -20.2262   -7.4840  -33.7333 C   0  0  0  0  0  0  0  0  0  0  0  0
  -19.8564   -6.8366  -35.0545 C   0  0  0  0  0  0  0  0  0  0  0  0
  -19.9320   -4.6714  -26.6298 N   0  0  0  0  0  0  0  0  0  0  0  0
  -19.2997   -4.3800  -28.8915 N   0  0  0  0  0  0  0  0  0  0  0  0
  -20.6817   -6.4576  -32.7693 N   0  0  0  0  0  0  0  0  0  0  0  0
  -19.3454   -7.8808  -36.0056 N   0  3  0  0  0  0  0  0  0  0  0  0
  -22.4605   -5.7086  -34.0476 O   0  0  0  0  0  0  0  0  0  0  0  0
  -26.0156   -3.8325  -20.6396 O   0  0  0  0  0  0  0  0  0  0  0  0
  -27.7157   -4.6931  -22.2872 O   0  0  0  0  0  0  0  0  0  0  0  0
  -26.3950   -4.7786  -21.6791 S   0  0  0  0  0  0  0  0  0  0  0  0
  -23.5352   -1.6227  -31.5862 H   0  0  0  0  0  0  0  0  0  0  0  0
  -22.8967   -2.0501  -29.2417 H   0  0  0  0  0  0  0  0  0  0  0  0
  -24.8210   -5.3218  -26.2572 H   0  0  0  0  0  0  0  0  0  0  0  0
  -21.9277   -3.8755  -23.3998 H   0  0  0  0  0  0  0  0  0  0  0  0
  -23.0208   -3.2817  -33.3434 H   0  0  0  0  0  0  0  0  0  0  0  0
  -26.5183   -5.4228  -24.4821 H   0  0  0  0  0  0  0  0  0  0  0  0
  -23.6295   -3.9792  -21.6297 H   0  0  0  0  0  0  0  0  0  0  0  0
  -23.6603   -4.1353  -27.5771 H   0  0  0  0  0  0  0  0  0  0  0  0
  -21.2040   -5.8416  -30.3986 H   0  0  0  0  0  0  0  0  0  0  0  0
  -20.5737   -4.9106  -24.6924 H   0  0  0  0  0  0  0  0  0  0  0  0
  -21.2277   -8.5688  -36.6646 H   0  0  0  0  0  0  0  0  0  0  0  0
  -19.8733   -9.7393  -36.8538 H   0  0  0  0  0  0  0  0  0  0  0  0
  -20.5626   -9.4160  -35.2225 H   0  0  0  0  0  0  0  0  0  0  0  0
  -19.7781   -6.8365  -37.7869 H   0  0  0  0  0  0  0  0  0  0  0  0
  -18.1456   -6.5285  -37.0937 H   0  0  0  0  0  0  0  0  0  0  0  0
  -18.4915   -8.0879  -37.9239 H   0  0  0  0  0  0  0  0  0  0  0  0
  -26.9708   -6.5352  -20.2089 H   0  0  0  0  0  0  0  0  0  0  0  0
  -26.4279   -7.1367  -21.8085 H   0  0  0  0  0  0  0  0  0  0  0  0
  -25.2256   -6.5367  -20.6209 H   0  0  0  0  0  0  0  0  0  0  0  0
  -21.0214   -8.2258  -33.8622 H   0  0  0  0  0  0  0  0  0  0  0  0
  -19.3544   -7.9902  -33.3067 H   0  0  0  0  0  0  0  0  0  0  0  0
  -19.0512   -6.1072  -34.9286 H   0  0  0  0  0  0  0  0  0  0  0  0
  -20.7132   -6.3588  -35.5391 H   0  0  0  0  0  0  0  0  0  0  0  0
  -19.5620   -4.2510  -29.8439 H   0  0  0  0  0  0  0  0  0  0  0  0
  -18.3590   -4.5683  -28.6227 H   0  0  0  0  0  0  0  0  0  0  0  0
  -20.1067   -6.3479  -31.9592 H   0  0  0  0  0  0  0  0  0  0  0  0
  -18.5110   -8.2973  -35.5707 H   0  0  0  0  0  0  0  0  0  0  0  0
  1  2  2  0  0  0  0
  1  5  1  0  0  0  0
  2 12  1  0  0  0  0
  3  6  1  0  0  0  0
  3 11  2  0  0  0  0
  4  7  2  0  0  0  0
  4 11  1  0  0  0  0
  5 15  2  0  0  0  0
  6 16  2  0  0  0  0
  7 16  1  0  0  0  0
  8 13  1  0  0  0  0
  8 14  2  0  0  0  0
  9 12  2  0  0  0  0
  9 15  1  0  0  0  0
 10 13  2  0  0  0  0
 10 24  1  0  0  0  0
 11 13  1  0  0  0  0
 12 14  1  0  0  0  0
 14 17  1  0  0  0  0
 15 18  1  0  0  0  0
 16 31  1  0  0  0  0
 17 24  2  0  0  0  0
 17 25  1  0  0  0  0
 18 26  1  0  0  0  0
 18 28  2  0  0  0  0
 19 27  1  0  0  0  0
 20 27  1  0  0  0  0
 21 31  1  0  0  0  0
 22 23  1  0  0  0  0
 22 26  1  0  0  0  0
 23 27  1  0  0  0  0
 29 31  2  0  0  0  0
 30 31  2  0  0  0  0
  1 32  1  0  0  0  0
  2 33  1  0  0  0  0
  3 34  1  0  0  0  0
  4 35  1  0  0  0  0
  5 36  1  0  0  0  0
  6 37  1  0  0  0  0
  7 38  1  0  0  0  0
  8 39  1  0  0  0  0
  9 40  1  0  0  0  0
 10 41  1  0  0  0  0
 19 42  1  0  0  0  0
 19 43  1  0  0  0  0
 19 44  1  0  0  0  0
 20 45  1  0  0  0  0
 20 46  1  0  0  0  0
 20 47  1  0  0  0  0
 21 48  1  0  0  0  0
 21 49  1  0  0  0  0
 21 50  1  0  0  0  0
 22 51  1  0  0  0  0
 22 52  1  0  0  0  0
 23 53  1  0  0  0  0
 23 54  1  0  0  0  0
 25 55  1  0  0  0  0
 25 56  1  0  0  0  0
 26 57  1  0  0  0  0
 27 58  1  0  0  0  0
M  CHG  1  27   1
M  END
> <SMILES>
CN(C)CCNC(=O)c1cccc(c1)-c1cc(cnc1N)-c1ccc(cc1)S(=O)(=O)C

> <FORMATTED_ID>
H3D-002149

> <MOLFORMULA>
C23H26N4O3S

> <Exact Mass>
438.17

> <XLogP>
2.6

> <TPSA_NOPS>
113.8

> <s_m_source_file>
ligprep_h3d.sdf

> <i_m_source_file_index>
3611

> <i_lp_mmshare_version>
55123

> <i_f3d_flags>
0

> <s_epik_input>
W0NIM11OKFtDSDNdKVtDSDJdW0NIMl1bTkhdQyg9TyljMVtjSF1bY0hdW2NIXWMoW2NIXTEpLWMyW2NIXWMoW2NIXW5jMltOSDJdKS1jM1tjSF1bY0hdYyhbY0hdW2NIXTMpUyg9TykoPU8pW0NIM10=

> <s_epik_cmdline>
J2VwaWtfcHl0aG9uJywgJy1waHQnLCAnMC41JywgJy1waCcsICc3LjUnLCAnLXRuJywgJzgnLCAnLW1hJywgJzUwMCcsICctaW1hZScsICc8aW5maWxlLm1hZT4nLCAnLW9tYWUnLCAnPG91dGZpbGUubWFlPic=

> <r_lp_tautomer_probability>
1

> <r_epik_Ionization_Penalty>
0.023291

> <r_epik_Ionization_Penalty_Charging>
0.0173871

> <r_epik_Ionization_Penalty_Neutral>
0.00590392

> <r_epik_State_Penalty>
0.013778

> <r_epik_Charging_Adjusted_Penalty>
0.0311652

> <i_epik_Tot_Q>
1

> <i_epik_Tot_abs_Q>
1

> <s_lp_Force_Field>
S-OPLS

> <r_lp_Energy>
40.872

> <b_lp_Chiralities_Consistent>
1

> <s_lp_Variant>
ligprep_h3d.sdf:3611-1

> <ROCS_ShapeQuery>
_7L13

> <ROCS_TanimotoCombo>
0.965 

> <ROCS_ShapeTanimoto>
0.711 

> <ROCS_ColorTanimoto>
0.255 

> <ROCS_RefTversky>
0.765 

> <ROCS_RefColorTversky>
0.466 

> <ROCS_RefTverskyCombo>
1.231 

> <ROCS_FitTversky>
0.910 

> <ROCS_FitColorTversky>
0.359 

> <ROCS_FitTverskyCombo>
1.269 

> <ROCS_ColorScore>
-4.264

> <ROCS_Overlap>
1258.750

> <ROCS_Rank>
635                 

$$$$
ligprep_h3d.sdf:785_1410
  -OEChem-08212117123D

 76 81  0     0  0  0  0  0  0999 V2000
  -19.4199   -4.5627  -32.3528 C   0  0  0  0  0  0  0  0  0  0  0  0
  -20.6163   -6.6546  -32.1811 C   0  0  0  0  0  0  0  0  0  0  0  0
  -18.8503   -4.9869  -33.5532 C   0  0  0  0  0  0  0  0  0  0  0  0
  -20.0468   -7.0788  -33.3817 C   0  0  0  0  0  0  0  0  0  0  0  0
  -18.7978   -7.0235  -26.2773 C   0  0  0  0  0  0  0  0  0  0  0  0
  -22.6828   -3.8352  -29.2358 C   0  0  0  0  0  0  0  0  0  0  0  0
  -17.4031   -7.1015  -26.1031 C   0  0  0  0  0  0  0  0  0  0  0  0
  -20.8590   -4.7759  -28.0002 C   0  0  0  0  0  0  0  0  0  0  0  0
  -20.3029   -5.3965  -31.6667 C   0  0  0  0  0  0  0  0  0  0  0  0
  -20.8962   -4.9545  -30.4157 C   0  0  0  0  0  0  0  0  0  0  0  0
  -19.1637   -6.2449  -34.0677 C   0  0  0  0  0  0  0  0  0  0  0  0
  -22.1037   -4.2654  -30.4333 C   0  0  0  0  0  0  0  0  0  0  0  0
  -20.2703   -5.2117  -29.2000 C   0  0  0  0  0  0  0  0  0  0  0  0
  -22.0784   -4.0790  -28.0050 C   0  0  0  0  0  0  0  0  0  0  0  0
  -20.2856   -5.0006  -26.7518 C   0  0  0  0  0  0  0  0  0  0  0  0
  -19.0415   -5.6909  -26.5041 C   0  0  0  0  0  0  0  0  0  0  0  0
  -21.9956   -3.9374  -25.7182 C   0  0  0  0  0  0  0  0  0  0  0  0
  -23.8649   -2.7720  -24.5344 C   0  0  0  0  0  0  0  0  0  0  0  0
  -22.2447   -4.1076  -23.2536 C   0  0  0  0  0  0  0  0  0  0  0  0
  -18.2976   -6.1177  -37.6993 C   0  0  0  0  0  0  0  0  0  0  0  0
  -20.4887   -6.6050  -36.8235 C   0  0  0  0  0  0  0  0  0  0  0  0
  -24.9961   -3.7249  -24.1671 C   0  0  0  0  0  0  0  0  0  0  0  0
  -23.3426   -5.0911  -22.8538 C   0  0  0  0  0  0  0  0  0  0  0  0
  -18.2832   -7.4970  -38.3550 C   0  0  0  0  0  0  0  0  0  0  0  0
  -20.4243   -7.9729  -37.4996 C   0  0  0  0  0  0  0  0  0  0  0  0
  -22.8184   -3.9633  -31.7121 C   0  0  0  0  0  0  0  0  0  0  0  0
  -18.9687   -5.9591  -29.2452 C   0  0  0  0  0  0  0  0  0  0  0  0
  -17.5494   -3.6681  -26.6319 C   0  0  0  0  0  0  0  0  0  0  0  0
  -25.7874   -5.2686  -22.3678 C   0  0  0  0  0  0  0  0  0  0  0  0
  -18.5546   -6.6986  -35.3512 C   0  0  0  0  0  0  0  0  0  0  0  0
  -16.8028   -5.9131  -26.2102 N   0  0  0  0  0  0  0  0  0  0  0  0
  -22.6504   -3.6578  -26.8634 N   0  0  0  0  0  0  0  0  0  0  0  0
  -20.8307   -4.5929  -25.5902 N   0  0  0  0  0  0  0  0  0  0  0  0
  -17.8252   -5.0758  -26.4542 N   0  0  0  0  0  0  0  0  0  0  0  0
  -22.5934   -3.4989  -24.5415 N   0  0  0  0  0  0  0  0  0  0  0  0
  -19.1622   -6.0541  -36.5128 N   0  0  0  0  0  0  0  0  0  0  0  0
  -24.6758   -4.3706  -22.8329 N   0  3  0  0  0  0  0  0  0  0  0  0
  -19.6125   -7.9098  -38.6725 O   0  0  0  0  0  0  0  0  0  0  0  0
  -19.1651   -3.5794  -31.9643 H   0  0  0  0  0  0  0  0  0  0  0  0
  -21.3034   -7.3158  -31.6584 H   0  0  0  0  0  0  0  0  0  0  0  0
  -18.1626   -4.3311  -34.0804 H   0  0  0  0  0  0  0  0  0  0  0  0
  -20.2970   -8.0604  -33.7756 H   0  0  0  0  0  0  0  0  0  0  0  0
  -19.5205   -7.8261  -26.2419 H   0  0  0  0  0  0  0  0  0  0  0  0
  -23.6292   -3.2963  -29.2654 H   0  0  0  0  0  0  0  0  0  0  0  0
  -16.7992   -7.9748  -25.9026 H   0  0  0  0  0  0  0  0  0  0  0  0
  -24.0692   -2.3548  -25.5238 H   0  0  0  0  0  0  0  0  0  0  0  0
  -23.8230   -1.9450  -23.8198 H   0  0  0  0  0  0  0  0  0  0  0  0
  -22.1358   -3.3371  -22.4896 H   0  0  0  0  0  0  0  0  0  0  0  0
  -21.3035   -4.6512  -23.3336 H   0  0  0  0  0  0  0  0  0  0  0  0
  -17.2600   -5.8481  -37.4224 H   0  0  0  0  0  0  0  0  0  0  0  0
  -18.6293   -5.3672  -38.4454 H   0  0  0  0  0  0  0  0  0  0  0  0
  -21.0420   -5.9031  -37.4804 H   0  0  0  0  0  0  0  0  0  0  0  0
  -21.0829   -6.7001  -35.8941 H   0  0  0  0  0  0  0  0  0  0  0  0
  -25.9348   -3.1799  -24.0472 H   0  0  0  0  0  0  0  0  0  0  0  0
  -25.1204   -4.5222  -24.9041 H   0  0  0  0  0  0  0  0  0  0  0  0
  -23.4232   -5.9250  -23.5576 H   0  0  0  0  0  0  0  0  0  0  0  0
  -23.1646   -5.4757  -21.8461 H   0  0  0  0  0  0  0  0  0  0  0  0
  -17.7136   -7.4581  -39.2889 H   0  0  0  0  0  0  0  0  0  0  0  0
  -17.8111   -8.2461  -37.7083 H   0  0  0  0  0  0  0  0  0  0  0  0
  -20.0310   -8.7411  -36.8228 H   0  0  0  0  0  0  0  0  0  0  0  0
  -21.4279   -8.2844  -37.8059 H   0  0  0  0  0  0  0  0  0  0  0  0
  -22.4901   -2.9965  -32.1088 H   0  0  0  0  0  0  0  0  0  0  0  0
  -22.6237   -4.7364  -32.4644 H   0  0  0  0  0  0  0  0  0  0  0  0
  -23.9034   -3.9304  -31.5588 H   0  0  0  0  0  0  0  0  0  0  0  0
  -19.1552   -7.0346  -29.1825 H   0  0  0  0  0  0  0  0  0  0  0  0
  -18.4298   -5.7445  -30.1729 H   0  0  0  0  0  0  0  0  0  0  0  0
  -18.3208   -5.6609  -28.4154 H   0  0  0  0  0  0  0  0  0  0  0  0
  -17.6040   -3.1874  -25.6516 H   0  0  0  0  0  0  0  0  0  0  0  0
  -16.5524   -3.5441  -27.0636 H   0  0  0  0  0  0  0  0  0  0  0  0
  -18.2901   -3.2378  -27.3117 H   0  0  0  0  0  0  0  0  0  0  0  0
  -25.8850   -6.0809  -23.0903 H   0  0  0  0  0  0  0  0  0  0  0  0
  -25.5177   -5.6508  -21.3814 H   0  0  0  0  0  0  0  0  0  0  0  0
  -26.7010   -4.6728  -22.3214 H   0  0  0  0  0  0  0  0  0  0  0  0
  -17.4779   -6.4795  -35.3779 H   0  0  0  0  0  0  0  0  0  0  0  0
  -18.6606   -7.7838  -35.4861 H   0  0  0  0  0  0  0  0  0  0  0  0
  -24.6060   -3.6129  -22.1321 H   0  0  0  0  0  0  0  0  0  0  0  0
  1  3  1  0  0  0  0
  1  9  2  0  0  0  0
  2  4  2  0  0  0  0
  2  9  1  0  0  0  0
  3 11  2  0  0  0  0
  4 11  1  0  0  0  0
  5  7  1  0  0  0  0
  5 16  2  0  0  0  0
  6 12  2  0  0  0  0
  6 14  1  0  0  0  0
  7 31  2  0  0  0  0
  8 13  1  0  0  0  0
  8 14  1  0  0  0  0
  8 15  2  0  0  0  0
  9 10  1  0  0  0  0
 10 12  1  0  0  0  0
 10 13  2  0  0  0  0
 11 30  1  0  0  0  0
 12 26  1  0  0  0  0
 13 27  1  0  0  0  0
 14 32  2  0  0  0  0
 15 16  1  0  0  0  0
 15 33  1  0  0  0  0
 16 34  1  0  0  0  0
 17 32  1  0  0  0  0
 17 33  2  0  0  0  0
 17 35  1  0  0  0  0
 18 22  1  0  0  0  0
 18 35  1  0  0  0  0
 19 23  1  0  0  0  0
 19 35  1  0  0  0  0
 20 24  1  0  0  0  0
 20 36  1  0  0  0  0
 21 25  1  0  0  0  0
 21 36  1  0  0  0  0
 22 37  1  0  0  0  0
 23 37  1  0  0  0  0
 24 38  1  0  0  0  0
 25 38  1  0  0  0  0
 28 34  1  0  0  0  0
 29 37  1  0  0  0  0
 30 36  1  0  0  0  0
 31 34  1  0  0  0  0
  1 39  1  0  0  0  0
  2 40  1  0  0  0  0
  3 41  1  0  0  0  0
  4 42  1  0  0  0  0
  5 43  1  0  0  0  0
  6 44  1  0  0  0  0
  7 45  1  0  0  0  0
 18 46  1  0  0  0  0
 18 47  1  0  0  0  0
 19 48  1  0  0  0  0
 19 49  1  0  0  0  0
 20 50  1  0  0  0  0
 20 51  1  0  0  0  0
 21 52  1  0  0  0  0
 21 53  1  0  0  0  0
 22 54  1  0  0  0  0
 22 55  1  0  0  0  0
 23 56  1  0  0  0  0
 23 57  1  0  0  0  0
 24 58  1  0  0  0  0
 24 59  1  0  0  0  0
 25 60  1  0  0  0  0
 25 61  1  0  0  0  0
 26 62  1  0  0  0  0
 26 63  1  0  0  0  0
 26 64  1  0  0  0  0
 27 65  1  0  0  0  0
 27 66  1  0  0  0  0
 27 67  1  0  0  0  0
 28 68  1  0  0  0  0
 28 69  1  0  0  0  0
 28 70  1  0  0  0  0
 29 71  1  0  0  0  0
 29 72  1  0  0  0  0
 29 73  1  0  0  0  0
 30 74  1  0  0  0  0
 30 75  1  0  0  0  0
 37 76  1  0  0  0  0
M  CHG  1  37   1
M  END
> <SMILES>
CN1CCN(CC1)c1nc(c2c(c(c(cc2n1)C)-c1ccc(cc1)CN1CCOCC1)C)-c1ccnn1C

> <FORMATTED_ID>
H3D-005326

> <MOLFORMULA>
C30H37N7O

> <Exact Mass>
511.31

> <XLogP>
3.86

> <TPSA_NOPS>
62.6

> <s_m_source_file>
ligprep_h3d.sdf

> <i_m_source_file_index>
785

> <i_lp_mmshare_version>
55123

> <i_f3d_flags>
0

> <s_epik_input>
W0NIM11uMW5bY0hdW2NIXWMxLWMybmMoTihbQ0gyXVtDSDJdMylbQ0gyXVtDSDJdTjNbQ0gzXSluYyhjMjQpW2NIXWMoW0NIM10pYyhjNFtDSDNdKS1jNVtjSF1bY0hdYyhbY0hdW2NIXTUpW0NIMl1ONltDSDJdW0NIMl1PW0NIMl1bQ0gyXTY=

> <s_epik_cmdline>
J2VwaWtfcHl0aG9uJywgJy1waHQnLCAnMC41JywgJy1waCcsICc3LjUnLCAnLXRuJywgJzgnLCAnLW1hJywgJzUwMCcsICctaW1hZScsICc8aW5maWxlLm1hZT4nLCAnLW9tYWUnLCAnPG91dGZpbGUubWFlPic=

> <r_lp_tautomer_probability>
1

> <r_epik_Ionization_Penalty>
0.564877

> <r_epik_Ionization_Penalty_Charging>
0.459246

> <r_epik_Ionization_Penalty_Neutral>
0.105631

> <r_epik_State_Penalty>
0.462635

> <r_epik_Charging_Adjusted_Penalty>
0.921881

> <i_epik_Tot_Q>
1

> <i_epik_Tot_abs_Q>
1

> <s_lp_Force_Field>
S-OPLS

> <r_lp_Energy>
87.7147

> <b_lp_Chiralities_Consistent>
1

> <s_lp_Variant>
ligprep_h3d.sdf:785-2

> <ROCS_ShapeQuery>
_7L13

> <ROCS_TanimotoCombo>
0.696 

> <ROCS_ShapeTanimoto>
0.591 

> <ROCS_ColorTanimoto>
0.105 

> <ROCS_RefTversky>
0.765 

> <ROCS_RefColorTversky>
0.228 

> <ROCS_RefTverskyCombo>
0.992 

> <ROCS_FitTversky>
0.723 

> <ROCS_FitColorTversky>
0.163 

> <ROCS_FitTverskyCombo>
0.886 

> <ROCS_ColorScore>
-2.095

> <ROCS_Overlap>
1273.964

> <ROCS_Rank>
636                 

$$$$
ligprep_h3d.sdf:2336_1340
  -OEChem-08212117123D

 53 57  0     0  0  0  0  0  0999 V2000
  -20.1109   -6.7913  -34.9953 C   0  0  0  0  0  0  0  0  0  0  0  0
  -19.2628   -2.9757  -23.4510 C   0  0  0  0  0  0  0  0  0  0  0  0
  -25.7597   -4.4920  -23.1691 C   0  0  0  0  0  0  0  0  0  0  0  0
  -25.7846   -5.1380  -24.4008 C   0  0  0  0  0  0  0  0  0  0  0  0
  -21.1453   -4.6528  -34.4148 C   0  0  0  0  0  0  0  0  0  0  0  0
  -20.8305   -6.3298  -32.7044 C   0  0  0  0  0  0  0  0  0  0  0  0
  -21.7213   -3.8003  -33.4730 C   0  0  0  0  0  0  0  0  0  0  0  0
  -21.4066   -5.4773  -31.7625 C   0  0  0  0  0  0  0  0  0  0  0  0
  -24.5844   -3.8997  -22.7044 C   0  0  0  0  0  0  0  0  0  0  0  0
  -24.6440   -5.2003  -25.2110 C   0  0  0  0  0  0  0  0  0  0  0  0
  -20.6999   -5.9176  -34.0305 C   0  0  0  0  0  0  0  0  0  0  0  0
  -21.8520   -4.2126  -32.1468 C   0  0  0  0  0  0  0  0  0  0  0  0
  -23.4289   -3.9582  -23.5048 C   0  0  0  0  0  0  0  0  0  0  0  0
  -23.4688   -4.5834  -24.7524 C   0  0  0  0  0  0  0  0  0  0  0  0
  -21.4348   -3.8007  -24.2675 C   0  0  0  0  0  0  0  0  0  0  0  0
  -20.2976   -4.5866  -26.6897 C   0  0  0  0  0  0  0  0  0  0  0  0
  -20.0349   -3.5875  -24.4822 C   0  0  0  0  0  0  0  0  0  0  0  0
  -19.4748   -3.9770  -25.6499 C   0  0  0  0  0  0  0  0  0  0  0  0
  -21.6181   -4.8009  -26.5142 C   0  0  0  0  0  0  0  0  0  0  0  0
  -23.5394   -4.4563  -27.9679 C   0  0  0  0  0  0  0  0  0  0  0  0
  -21.6613   -5.7746  -28.7446 C   0  0  0  0  0  0  0  0  0  0  0  0
  -23.0809   -3.2402  -28.7697 C   0  0  0  0  0  0  0  0  0  0  0  0
  -21.1266   -4.6123  -29.5782 C   0  0  0  0  0  0  0  0  0  0  0  0
  -22.4705   -3.2943  -31.1327 C   0  0  0  0  0  0  0  0  0  0  0  0
  -18.0214   -3.8283  -26.0144 C   0  0  0  0  0  0  0  0  0  0  0  0
  -19.6325   -7.5010  -35.7790 N   0  0  0  0  0  0  0  0  0  0  0  0
  -18.6348   -2.4782  -22.6120 N   0  0  0  0  0  0  0  0  0  0  0  0
  -22.1788   -3.4823  -23.2297 N   0  0  0  0  0  0  0  0  0  0  0  0
  -22.1833   -4.4308  -25.2720 N   0  0  0  0  0  0  0  0  0  0  0  0
  -22.4501   -5.3614  -27.5757 N   0  0  0  0  0  0  0  0  0  0  0  0
  -22.2419   -3.7001  -29.8914 N   0  0  0  0  0  0  0  0  0  0  0  0
  -17.7920   -4.3027  -27.2526 F   0  0  0  0  0  0  0  0  0  0  0  0
  -17.6533   -2.5342  -25.9854 F   0  0  0  0  0  0  0  0  0  0  0  0
  -17.2403   -4.5063  -25.1534 F   0  0  0  0  0  0  0  0  0  0  0  0
  -26.6577   -4.4576  -22.5585 H   0  0  0  0  0  0  0  0  0  0  0  0
  -26.7045   -5.6073  -24.7407 H   0  0  0  0  0  0  0  0  0  0  0  0
  -21.0522   -4.3179  -35.4452 H   0  0  0  0  0  0  0  0  0  0  0  0
  -20.4868   -7.3121  -32.3886 H   0  0  0  0  0  0  0  0  0  0  0  0
  -22.0663   -2.8170  -33.7816 H   0  0  0  0  0  0  0  0  0  0  0  0
  -21.5025   -5.8062  -30.7311 H   0  0  0  0  0  0  0  0  0  0  0  0
  -24.5639   -3.4113  -21.7349 H   0  0  0  0  0  0  0  0  0  0  0  0
  -24.6996   -5.7315  -26.1523 H   0  0  0  0  0  0  0  0  0  0  0  0
  -19.8160   -4.8448  -27.6291 H   0  0  0  0  0  0  0  0  0  0  0  0
  -24.1042   -4.0999  -27.0682 H   0  0  0  0  0  0  0  0  0  0  0  0
  -24.2931   -5.0414  -28.5548 H   0  0  0  0  0  0  0  0  0  0  0  0
  -22.2941   -6.4455  -29.3807 H   0  0  0  0  0  0  0  0  0  0  0  0
  -20.7985   -6.4195  -28.4358 H   0  0  0  0  0  0  0  0  0  0  0  0
  -23.9630   -2.7324  -29.1524 H   0  0  0  0  0  0  0  0  0  0  0  0
  -22.5366   -2.5518  -28.1263 H   0  0  0  0  0  0  0  0  0  0  0  0
  -20.3358   -4.0964  -29.0372 H   0  0  0  0  0  0  0  0  0  0  0  0
  -20.7109   -5.0159  -30.4986 H   0  0  0  0  0  0  0  0  0  0  0  0
  -22.0698   -2.2800  -31.2352 H   0  0  0  0  0  0  0  0  0  0  0  0
  -23.5551   -3.2310  -31.2698 H   0  0  0  0  0  0  0  0  0  0  0  0
  1 11  1  0  0  0  0
  1 26  3  0  0  0  0
  2 17  1  0  0  0  0
  2 27  3  0  0  0  0
  3  4  2  0  0  0  0
  3  9  1  0  0  0  0
  4 10  1  0  0  0  0
  5  7  1  0  0  0  0
  5 11  2  0  0  0  0
  6  8  2  0  0  0  0
  6 11  1  0  0  0  0
  7 12  2  0  0  0  0
  8 12  1  0  0  0  0
  9 13  2  0  0  0  0
 10 14  2  0  0  0  0
 12 24  1  0  0  0  0
 13 14  1  0  0  0  0
 13 28  1  0  0  0  0
 14 29  1  0  0  0  0
 15 17  1  0  0  0  0
 15 28  2  0  0  0  0
 15 29  1  0  0  0  0
 16 18  1  0  0  0  0
 16 19  2  0  0  0  0
 17 18  2  0  0  0  0
 18 25  1  0  0  0  0
 19 29  1  0  0  0  0
 19 30  1  0  0  0  0
 20 22  1  0  0  0  0
 20 30  1  0  0  0  0
 21 23  1  0  0  0  0
 21 30  1  0  0  0  0
 22 31  1  0  0  0  0
 23 31  1  0  0  0  0
 24 31  1  0  0  0  0
 25 32  1  0  0  0  0
 25 33  1  0  0  0  0
 25 34  1  0  0  0  0
  3 35  1  0  0  0  0
  4 36  1  0  0  0  0
  5 37  1  0  0  0  0
  6 38  1  0  0  0  0
  7 39  1  0  0  0  0
  8 40  1  0  0  0  0
  9 41  1  0  0  0  0
 10 42  1  0  0  0  0
 16 43  1  0  0  0  0
 20 44  1  0  0  0  0
 20 45  1  0  0  0  0
 21 46  1  0  0  0  0
 21 47  1  0  0  0  0
 22 48  1  0  0  0  0
 22 49  1  0  0  0  0
 23 50  1  0  0  0  0
 23 51  1  0  0  0  0
 24 52  1  0  0  0  0
 24 53  1  0  0  0  0
M  END
> <SMILES>
FC(F)(F)c1cc(n2c3ccccc3nc2c1C#N)N1CCN(CC1)Cc1ccc(cc1)C#N

> <FORMATTED_ID>
H3D-005394

> <MOLFORMULA>
C25H19F3N6

> <Exact Mass>
460.16

> <XLogP>
5.4

> <TPSA_NOPS>
71.4

> <s_m_source_file>
ligprep_h3d.sdf

> <i_m_source_file_index>
2336

> <i_lp_mmshare_version>
55123

> <i_f3d_flags>
0

> <s_epik_input>
W2NIXTFbY0hdW2NIXVtjSF1jKGMxbjIzKW5jM2MoQyNOKWMoQyhGKShGKUYpW2NIXWMyTjRbQ0gyXVtDSDJdTihbQ0gyXVtDSDJdNClbQ0gyXWM1W2NIXVtjSF1jKEMjTilbY0hdW2NIXTU=

> <s_epik_cmdline>
J2VwaWtfcHl0aG9uJywgJy1waHQnLCAnMC41JywgJy1waCcsICc3LjUnLCAnLXRuJywgJzgnLCAnLW1hJywgJzUwMCcsICctaW1hZScsICc8aW5maWxlLm1hZT4nLCAnLW9tYWUnLCAnPG91dGZpbGUubWFlPic=

> <r_epik_Ionization_Penalty>
0.11385

> <r_epik_Ionization_Penalty_Charging>
0

> <r_epik_Ionization_Penalty_Neutral>
0.11385

> <r_epik_State_Penalty>
0.103159

> <r_epik_Charging_Adjusted_Penalty>
0.103159

> <i_epik_Tot_Q>
0

> <i_epik_Tot_abs_Q>
0

> <s_lp_Force_Field>
S-OPLS

> <r_lp_Energy>
69.62

> <b_lp_Chiralities_Consistent>
1

> <s_lp_Variant>
ligprep_h3d.sdf:2336-1

> <ROCS_ShapeQuery>
_7L13

> <ROCS_TanimotoCombo>
0.767 

> <ROCS_ShapeTanimoto>
0.637 

> <ROCS_ColorTanimoto>
0.131 

> <ROCS_RefTversky>
0.765 

> <ROCS_RefColorTversky>
0.232 

> <ROCS_RefTverskyCombo>
0.996 

> <ROCS_FitTversky>
0.792 

> <ROCS_FitColorTversky>
0.231 

> <ROCS_FitTverskyCombo>
1.023 

> <ROCS_ColorScore>
-2.086

> <ROCS_Overlap>
1267.203

> <ROCS_Rank>
637                 

$$$$
ligprep_h3d.sdf:2701_333
  -OEChem-08212117123D

 50 53  0     0  0  0  0  0  0999 V2000
  -19.0261   -5.1346  -24.2266 C   0  0  0  0  0  0  0  0  0  0  0  0
  -23.2292   -2.6868  -30.3902 C   0  0  0  0  0  0  0  0  0  0  0  0
  -23.1679   -2.8257  -31.7767 C   0  0  0  0  0  0  0  0  0  0  0  0
  -22.0056   -4.7536  -30.1290 C   0  0  0  0  0  0  0  0  0  0  0  0
  -24.3524   -4.7746  -23.1170 C   0  0  0  0  0  0  0  0  0  0  0  0
  -24.8141   -4.1887  -25.8413 C   0  0  0  0  0  0  0  0  0  0  0  0
  -21.9443   -4.8925  -31.5156 C   0  0  0  0  0  0  0  0  0  0  0  0
  -23.2744   -4.6546  -24.0130 C   0  0  0  0  0  0  0  0  0  0  0  0
  -23.5063   -4.3437  -25.3541 C   0  0  0  0  0  0  0  0  0  0  0  0
  -22.6480   -3.6507  -29.5663 C   0  0  0  0  0  0  0  0  0  0  0  0
  -22.5255   -3.9286  -32.3394 C   0  0  0  0  0  0  0  0  0  0  0  0
  -25.6519   -4.5977  -23.5948 C   0  0  0  0  0  0  0  0  0  0  0  0
  -25.8770   -4.3162  -24.9383 C   0  0  0  0  0  0  0  0  0  0  0  0
  -21.3355   -4.6340  -24.9202 C   0  0  0  0  0  0  0  0  0  0  0  0
  -20.4980   -4.0561  -27.5169 C   0  0  0  0  0  0  0  0  0  0  0  0
  -19.9443   -4.7396  -25.2438 C   0  0  0  0  0  0  0  0  0  0  0  0
  -19.5331   -4.4723  -26.5041 C   0  0  0  0  0  0  0  0  0  0  0  0
  -21.8144   -3.9497  -27.2405 C   0  0  0  0  0  0  0  0  0  0  0  0
  -19.9146   -6.7809  -35.5957 C   0  0  0  0  0  0  0  0  0  0  0  0
  -21.2517   -6.0787  -32.1011 C   0  0  0  0  0  0  0  0  0  0  0  0
  -20.2106   -7.0749  -34.1413 C   0  0  0  0  0  0  0  0  0  0  0  0
  -18.1114   -4.5492  -26.9942 C   0  0  0  0  0  0  0  0  0  0  0  0
  -18.2793   -5.4560  -23.3990 N   0  0  0  0  0  0  0  0  0  0  0  0
  -21.9417   -4.8229  -23.7674 N   0  0  0  0  0  0  0  0  0  0  0  0
  -22.2383   -4.2756  -25.9315 N   0  0  0  0  0  0  0  0  0  0  0  0
  -22.7099   -3.5112  -28.1767 N   0  0  0  0  0  0  0  0  0  0  0  0
  -20.9508   -5.9290  -33.5510 N   0  3  0  0  0  0  0  0  0  0  0  0
  -22.4744   -4.0482  -33.6958 O   0  0  0  0  0  0  0  0  0  0  0  0
  -26.6895   -4.7144  -22.7552 F   0  0  0  0  0  0  0  0  0  0  0  0
  -27.1340   -4.1687  -25.3801 F   0  0  0  0  0  0  0  0  0  0  0  0
  -18.0387   -4.2083  -28.2939 F   0  0  0  0  0  0  0  0  0  0  0  0
  -17.3212   -3.7132  -26.2957 F   0  0  0  0  0  0  0  0  0  0  0  0
  -17.6255   -5.7969  -26.8593 F   0  0  0  0  0  0  0  0  0  0  0  0
  -23.7328   -1.8235  -29.9624 H   0  0  0  0  0  0  0  0  0  0  0  0
  -23.6218   -2.0706  -32.4128 H   0  0  0  0  0  0  0  0  0  0  0  0
  -21.5523   -5.5057  -29.4871 H   0  0  0  0  0  0  0  0  0  0  0  0
  -24.1814   -5.0113  -22.0714 H   0  0  0  0  0  0  0  0  0  0  0  0
  -25.0336   -3.9910  -26.8824 H   0  0  0  0  0  0  0  0  0  0  0  0
  -20.1190   -3.8089  -28.5049 H   0  0  0  0  0  0  0  0  0  0  0  0
  -20.8479   -6.6612  -36.1545 H   0  0  0  0  0  0  0  0  0  0  0  0
  -19.3352   -5.8580  -35.7029 H   0  0  0  0  0  0  0  0  0  0  0  0
  -19.3461   -7.5954  -36.0565 H   0  0  0  0  0  0  0  0  0  0  0  0
  -20.2916   -6.2707  -31.6043 H   0  0  0  0  0  0  0  0  0  0  0  0
  -21.8588   -6.9883  -32.0035 H   0  0  0  0  0  0  0  0  0  0  0  0
  -19.2935   -7.1992  -33.5589 H   0  0  0  0  0  0  0  0  0  0  0  0
  -20.8441   -7.9590  -34.0283 H   0  0  0  0  0  0  0  0  0  0  0  0
  -23.5102   -3.0287  -27.7980 H   0  0  0  0  0  0  0  0  0  0  0  0
  -21.8320   -5.7953  -34.0647 H   0  0  0  0  0  0  0  0  0  0  0  0
  -20.4086   -5.0664  -33.6940 H   0  0  0  0  0  0  0  0  0  0  0  0
  -22.9232   -3.2976  -34.1153 H   0  0  0  0  0  0  0  0  0  0  0  0
  1 16  1  0  0  0  0
  1 23  3  0  0  0  0
  2  3  1  0  0  0  0
  2 10  2  0  0  0  0
  3 11  2  0  0  0  0
  4  7  2  0  0  0  0
  4 10  1  0  0  0  0
  5  8  2  0  0  0  0
  5 12  1  0  0  0  0
  6  9  2  0  0  0  0
  6 13  1  0  0  0  0
  7 11  1  0  0  0  0
  7 20  1  0  0  0  0
  8  9  1  0  0  0  0
  8 24  1  0  0  0  0
  9 25  1  0  0  0  0
 10 26  1  0  0  0  0
 11 28  1  0  0  0  0
 12 13  2  0  0  0  0
 12 29  1  0  0  0  0
 13 30  1  0  0  0  0
 14 16  1  0  0  0  0
 14 24  2  0  0  0  0
 14 25  1  0  0  0  0
 15 17  1  0  0  0  0
 15 18  2  0  0  0  0
 16 17  2  0  0  0  0
 17 22  1  0  0  0  0
 18 25  1  0  0  0  0
 18 26  1  0  0  0  0
 19 21  1  0  0  0  0
 20 27  1  0  0  0  0
 21 27  1  0  0  0  0
 22 31  1  0  0  0  0
 22 32  1  0  0  0  0
 22 33  1  0  0  0  0
  2 34  1  0  0  0  0
  3 35  1  0  0  0  0
  4 36  1  0  0  0  0
  5 37  1  0  0  0  0
  6 38  1  0  0  0  0
 15 39  1  0  0  0  0
 19 40  1  0  0  0  0
 19 41  1  0  0  0  0
 19 42  1  0  0  0  0
 20 43  1  0  0  0  0
 20 44  1  0  0  0  0
 21 45  1  0  0  0  0
 21 46  1  0  0  0  0
 26 47  1  0  0  0  0
 27 48  1  0  0  0  0
 27 49  1  0  0  0  0
 28 50  1  0  0  0  0
M  CHG  1  27   1
M  END
> <SMILES>
CCNCc1cc(ccc1O)Nc1cc(c(c2nc3cc(c(cc3n12)F)F)C#N)C(F)(F)F

> <FORMATTED_ID>
H3D-008156

> <MOLFORMULA>
C22H16F5N5O

> <Exact Mass>
461.13

> <XLogP>
5.86

> <TPSA_NOPS>
85.4

> <s_m_source_file>
ligprep_h3d.sdf

> <i_m_source_file_index>
2701

> <i_lp_mmshare_version>
55123

> <i_f3d_flags>
0

> <s_epik_input>
W0NIM11bQ0gyXVtOSF1bQ0gyXWMxW2NIXWMoW2NIXVtjSF1jMVtPSF0pW05IXWMoW2NIXWMoQyhGKShGKUYpYzJDI04pbihjMjMpYzRjKG4zKVtjSF1jKEYpYyhGKVtjSF00

> <s_epik_cmdline>
J2VwaWtfcHl0aG9uJywgJy1waHQnLCAnMC41JywgJy1waCcsICc3LjUnLCAnLXRuJywgJzgnLCAnLW1hJywgJzUwMCcsICctaW1hZScsICc8aW5maWxlLm1hZT4nLCAnLW9tYWUnLCAnPG91dGZpbGUubWFlPic=

> <r_epik_Ionization_Penalty>
0.0368677

> <r_epik_Ionization_Penalty_Charging>
0.0316363

> <r_epik_Ionization_Penalty_Neutral>
0.00523138

> <r_epik_State_Penalty>
0.0261596

> <r_epik_Charging_Adjusted_Penalty>
0.0577959

> <i_epik_Tot_Q>
1

> <i_epik_Tot_abs_Q>
1

> <s_lp_Force_Field>
S-OPLS

> <r_lp_Energy>
54.1394

> <b_lp_Chiralities_Consistent>
1

> <s_lp_Variant>
ligprep_h3d.sdf:2701-1

> <ROCS_ShapeQuery>
_7L13

> <ROCS_TanimotoCombo>
0.784 

> <ROCS_ShapeTanimoto>
0.653 

> <ROCS_ColorTanimoto>
0.131 

> <ROCS_RefTversky>
0.765 

> <ROCS_RefColorTversky>
0.255 

> <ROCS_RefTverskyCombo>
1.019 

> <ROCS_FitTversky>
0.818 

> <ROCS_FitColorTversky>
0.212 

> <ROCS_FitTverskyCombo>
1.030 

> <ROCS_ColorScore>
-2.318

> <ROCS_Overlap>
1265.000

> <ROCS_Rank>
638                 

$$$$
ligprep_h3d.sdf:3773_1417
  -OEChem-08212117123D

 62 65  0     0  0  0  0  0  0999 V2000
  -21.3205   -4.8094  -32.7434 C   0  0  0  0  0  0  0  0  0  0  0  0
  -19.6698   -6.4724  -32.1547 C   0  0  0  0  0  0  0  0  0  0  0  0
  -24.2373   -5.3566  -25.0161 C   0  0  0  0  0  0  0  0  0  0  0  0
  -23.0396   -3.5259  -23.9907 C   0  0  0  0  0  0  0  0  0  0  0  0
  -21.1298   -5.0984  -34.0946 C   0  0  0  0  0  0  0  0  0  0  0  0
  -19.4791   -6.7614  -33.5059 C   0  0  0  0  0  0  0  0  0  0  0  0
  -25.1692   -5.3280  -23.9786 C   0  0  0  0  0  0  0  0  0  0  0  0
  -23.9715   -3.4973  -22.9533 C   0  0  0  0  0  0  0  0  0  0  0  0
  -21.9363   -5.2937  -29.6227 C   0  0  0  0  0  0  0  0  0  0  0  0
  -20.5904   -5.4963  -31.7735 C   0  0  0  0  0  0  0  0  0  0  0  0
  -23.1724   -4.4556  -25.0221 C   0  0  0  0  0  0  0  0  0  0  0  0
  -20.2091   -6.0744  -34.4759 C   0  0  0  0  0  0  0  0  0  0  0  0
  -21.7289   -4.9053  -28.2654 C   0  0  0  0  0  0  0  0  0  0  0  0
  -20.4094   -4.5211  -28.0297 C   0  0  0  0  0  0  0  0  0  0  0  0
  -25.0364   -4.3983  -22.9472 C   0  0  0  0  0  0  0  0  0  0  0  0
  -20.7877   -5.1971  -30.3746 C   0  0  0  0  0  0  0  0  0  0  0  0
  -20.0390   -4.1126  -26.7538 C   0  0  0  0  0  0  0  0  0  0  0  0
  -22.2096   -4.4844  -26.0940 C   0  0  0  0  0  0  0  0  0  0  0  0
  -16.1176   -7.4200  -25.8203 C   0  0  0  0  0  0  0  0  0  0  0  0
  -16.2532   -6.1193  -23.7013 C   0  0  0  0  0  0  0  0  0  0  0  0
  -25.5449   -5.4769  -20.4309 C   0  0  0  0  0  0  0  0  0  0  0  0
  -16.6550   -3.6916  -25.1915 C   0  0  0  0  0  0  0  0  0  0  0  0
  -18.1807   -3.6881  -25.1437 C   0  0  0  0  0  0  0  0  0  0  0  0
  -16.1012   -4.9305  -25.8840 C   0  0  0  0  0  0  0  0  0  0  0  0
  -20.0050   -6.3830  -35.9205 C   0  0  0  0  0  0  0  0  0  0  0  0
  -22.6726   -4.8950  -27.2865 N   0  0  0  0  0  0  0  0  0  0  0  0
  -20.9619   -4.0964  -25.7718 N   0  0  0  0  0  0  0  0  0  0  0  0
  -18.7391   -3.7216  -26.4746 N   0  0  0  0  0  0  0  0  0  0  0  0
  -16.5853   -6.1393  -25.1733 N   0  3  0  0  0  0  0  0  0  0  0  0
  -26.1991   -3.0221  -21.0795 O   0  0  0  0  0  0  0  0  0  0  0  0
  -27.4538   -4.9411  -22.1230 O   0  0  0  0  0  0  0  0  0  0  0  0
  -20.7849   -5.6347  -36.7559 F   0  0  0  0  0  0  0  0  0  0  0  0
  -18.7245   -6.1756  -36.3484 F   0  0  0  0  0  0  0  0  0  0  0  0
  -20.2864   -7.6836  -36.2246 F   0  0  0  0  0  0  0  0  0  0  0  0
  -19.4598   -4.6405  -29.4542 S   0  0  0  0  0  0  0  0  0  0  0  0
  -26.2041   -4.3617  -21.6496 S   0  0  0  0  0  0  0  0  0  0  0  0
  -22.0416   -4.0456  -32.4622 H   0  0  0  0  0  0  0  0  0  0  0  0
  -19.0933   -7.0168  -31.4105 H   0  0  0  0  0  0  0  0  0  0  0  0
  -24.3542   -6.0874  -25.8127 H   0  0  0  0  0  0  0  0  0  0  0  0
  -22.2150   -2.8169  -23.9808 H   0  0  0  0  0  0  0  0  0  0  0  0
  -21.7026   -4.5579  -34.8436 H   0  0  0  0  0  0  0  0  0  0  0  0
  -18.7596   -7.5235  -33.7935 H   0  0  0  0  0  0  0  0  0  0  0  0
  -25.9949   -6.0344  -23.9832 H   0  0  0  0  0  0  0  0  0  0  0  0
  -23.8589   -2.7696  -22.1544 H   0  0  0  0  0  0  0  0  0  0  0  0
  -22.8862   -5.6274  -30.0227 H   0  0  0  0  0  0  0  0  0  0  0  0
  -15.0273   -7.4393  -25.7728 H   0  0  0  0  0  0  0  0  0  0  0  0
  -16.5497   -8.2532  -25.2629 H   0  0  0  0  0  0  0  0  0  0  0  0
  -16.4653   -7.4178  -26.8552 H   0  0  0  0  0  0  0  0  0  0  0  0
  -15.1660   -6.1082  -23.6044 H   0  0  0  0  0  0  0  0  0  0  0  0
  -16.6948   -5.2183  -23.2713 H   0  0  0  0  0  0  0  0  0  0  0  0
  -16.6781   -7.0182  -23.2506 H   0  0  0  0  0  0  0  0  0  0  0  0
  -26.2304   -5.5041  -19.5825 H   0  0  0  0  0  0  0  0  0  0  0  0
  -25.4555   -6.4663  -20.8821 H   0  0  0  0  0  0  0  0  0  0  0  0
  -24.5663   -5.1081  -20.1203 H   0  0  0  0  0  0  0  0  0  0  0  0
  -16.2500   -3.6211  -24.1740 H   0  0  0  0  0  0  0  0  0  0  0  0
  -16.3218   -2.7954  -25.7297 H   0  0  0  0  0  0  0  0  0  0  0  0
  -18.5316   -4.5681  -24.5949 H   0  0  0  0  0  0  0  0  0  0  0  0
  -18.5462   -2.8019  -24.6143 H   0  0  0  0  0  0  0  0  0  0  0  0
  -16.4439   -5.0171  -26.9190 H   0  0  0  0  0  0  0  0  0  0  0  0
  -15.0080   -4.9621  -25.8537 H   0  0  0  0  0  0  0  0  0  0  0  0
  -18.1465   -3.4418  -27.2483 H   0  0  0  0  0  0  0  0  0  0  0  0
  -17.6181   -6.1494  -25.2332 H   0  0  0  0  0  0  0  0  0  0  0  0
  1  5  1  0  0  0  0
  1 10  2  0  0  0  0
  2  6  2  0  0  0  0
  2 10  1  0  0  0  0
  3  7  1  0  0  0  0
  3 11  2  0  0  0  0
  4  8  2  0  0  0  0
  4 11  1  0  0  0  0
  5 12  2  0  0  0  0
  6 12  1  0  0  0  0
  7 15  2  0  0  0  0
  8 15  1  0  0  0  0
  9 13  1  0  0  0  0
  9 16  2  0  0  0  0
 10 16  1  0  0  0  0
 11 18  1  0  0  0  0
 12 25  1  0  0  0  0
 13 14  1  0  0  0  0
 13 26  2  0  0  0  0
 14 17  2  0  0  0  0
 14 35  1  0  0  0  0
 15 36  1  0  0  0  0
 16 35  1  0  0  0  0
 17 27  1  0  0  0  0
 17 28  1  0  0  0  0
 18 26  1  0  0  0  0
 18 27  2  0  0  0  0
 19 29  1  0  0  0  0
 20 29  1  0  0  0  0
 21 36  1  0  0  0  0
 22 23  1  0  0  0  0
 22 24  1  0  0  0  0
 23 28  1  0  0  0  0
 24 29  1  0  0  0  0
 25 32  1  0  0  0  0
 25 33  1  0  0  0  0
 25 34  1  0  0  0  0
 30 36  2  0  0  0  0
 31 36  2  0  0  0  0
  1 37  1  0  0  0  0
  2 38  1  0  0  0  0
  3 39  1  0  0  0  0
  4 40  1  0  0  0  0
  5 41  1  0  0  0  0
  6 42  1  0  0  0  0
  7 43  1  0  0  0  0
  8 44  1  0  0  0  0
  9 45  1  0  0  0  0
 19 46  1  0  0  0  0
 19 47  1  0  0  0  0
 19 48  1  0  0  0  0
 20 49  1  0  0  0  0
 20 50  1  0  0  0  0
 20 51  1  0  0  0  0
 21 52  1  0  0  0  0
 21 53  1  0  0  0  0
 21 54  1  0  0  0  0
 22 55  1  0  0  0  0
 22 56  1  0  0  0  0
 23 57  1  0  0  0  0
 23 58  1  0  0  0  0
 24 59  1  0  0  0  0
 24 60  1  0  0  0  0
 28 61  1  0  0  0  0
 29 62  1  0  0  0  0
M  CHG  1  29   1
M  END
> <SMILES>
CN(C)CCCNc1nc(nc2cc(sc12)-c1ccc(cc1)C(F)(F)F)-c1ccc(cc1)S(=O)(=O)C

> <FORMATTED_ID>
H3D-002317

> <MOLFORMULA>
C25H25F3N4O2S2

> <Exact Mass>
534.14

> <XLogP>
6.14

> <TPSA_NOPS>
111.8

> <s_m_source_file>
ligprep_h3d.sdf

> <i_m_source_file_index>
3773

> <i_lp_mmshare_version>
55123

> <i_f3d_flags>
0

> <s_epik_input>
W2NIXTFbY0hdYyhTKD1PKSg9TylbQ0gzXSlbY0hdW2NIXWMxLWMobjIpbmMoW05IXVtDSDJdW0NIMl1bQ0gyXU4oW0NIM10pW0NIM10pYyhjMjMpc2MoW2NIXTMpLWM0W2NIXVtjSF1jKEMoRikoRilGKVtjSF1bY0hdNA==

> <s_epik_cmdline>
J2VwaWtfcHl0aG9uJywgJy1waHQnLCAnMC41JywgJy1waCcsICc3LjUnLCAnLXRuJywgJzgnLCAnLW1hJywgJzUwMCcsICctaW1hZScsICc8aW5maWxlLm1hZT4nLCAnLW9tYWUnLCAnPG91dGZpbGUubWFlPic=

> <r_lp_tautomer_probability>
1

> <r_epik_Ionization_Penalty>
0.00488183

> <r_epik_Ionization_Penalty_Charging>
0.00423671

> <r_epik_Ionization_Penalty_Neutral>
0.000645119

> <r_epik_State_Penalty>
-0

> <r_epik_Charging_Adjusted_Penalty>
0.00423671

> <i_epik_Tot_Q>
1

> <i_epik_Tot_abs_Q>
1

> <s_lp_Force_Field>
S-OPLS

> <r_lp_Energy>
37.3727

> <b_lp_Chiralities_Consistent>
1

> <s_lp_Variant>
ligprep_h3d.sdf:3773-1

> <ROCS_ShapeQuery>
_7L13

> <ROCS_TanimotoCombo>
0.769 

> <ROCS_ShapeTanimoto>
0.635 

> <ROCS_ColorTanimoto>
0.134 

> <ROCS_RefTversky>
0.764 

> <ROCS_RefColorTversky>
0.260 

> <ROCS_RefTverskyCombo>
1.024 

> <ROCS_FitTversky>
0.789 

> <ROCS_FitColorTversky>
0.217 

> <ROCS_FitTverskyCombo>
1.006 

> <ROCS_ColorScore>
-2.366

> <ROCS_Overlap>
1267.209

> <ROCS_Rank>
639                 

$$$$
ligprep_h3d.sdf:2504_756
  -OEChem-08212117123D

 76 81  0     0  0  0  0  0  0999 V2000
  -25.5247   -5.0349  -23.5894 C   0  0  0  0  0  0  0  0  0  0  0  0
  -24.3783   -4.5950  -22.9238 C   0  0  0  0  0  0  0  0  0  0  0  0
  -19.5973   -8.7059  -35.3879 C   0  0  0  0  0  0  0  0  0  0  0  0
  -19.1326   -6.7261  -36.6923 C   0  0  0  0  0  0  0  0  0  0  0  0
  -20.4448   -7.9647  -34.5647 C   0  0  0  0  0  0  0  0  0  0  0  0
  -19.9802   -5.9848  -35.8691 C   0  0  0  0  0  0  0  0  0  0  0  0
  -25.6019   -5.0089  -24.9876 C   0  0  0  0  0  0  0  0  0  0  0  0
  -23.2695   -4.1142  -23.6281 C   0  0  0  0  0  0  0  0  0  0  0  0
  -18.9411   -8.0866  -36.4517 C   0  0  0  0  0  0  0  0  0  0  0  0
  -20.6363   -6.6041  -34.8053 C   0  0  0  0  0  0  0  0  0  0  0  0
  -24.4972   -4.5288  -25.7112 C   0  0  0  0  0  0  0  0  0  0  0  0
  -23.3687   -4.0974  -25.0197 C   0  0  0  0  0  0  0  0  0  0  0  0
  -18.0645   -8.8532  -37.3030 C   0  0  0  0  0  0  0  0  0  0  0  0
  -16.8892  -10.2170  -38.3219 C   0  0  0  0  0  0  0  0  0  0  0  0
  -23.1095   -3.9018  -27.2082 C   0  0  0  0  0  0  0  0  0  0  0  0
  -19.9347   -5.1672  -24.8707 C   0  0  0  0  0  0  0  0  0  0  0  0
  -18.7448   -3.5148  -26.3731 C   0  0  0  0  0  0  0  0  0  0  0  0
  -18.8173   -6.1817  -25.1015 C   0  0  0  0  0  0  0  0  0  0  0  0
  -17.6278   -4.5296  -26.6042 C   0  0  0  0  0  0  0  0  0  0  0  0
  -23.7177   -4.3388  -30.3305 C   0  0  0  0  0  0  0  0  0  0  0  0
  -22.1505   -2.3634  -30.4815 C   0  0  0  0  0  0  0  0  0  0  0  0
  -22.6740   -5.2090  -31.0215 C   0  0  0  0  0  0  0  0  0  0  0  0
  -21.1145   -3.2510  -31.1606 C   0  0  0  0  0  0  0  0  0  0  0  0
  -20.0801   -4.2051  -26.0589 C   0  0  0  0  0  0  0  0  0  0  0  0
  -23.1043   -3.1526  -29.5824 C   0  0  0  0  0  0  0  0  0  0  0  0
  -17.5045   -5.4965  -25.4394 C   0  0  0  0  0  0  0  0  0  0  0  0
  -16.2463  -11.4810  -38.6967 C   0  0  0  0  0  0  0  0  0  0  0  0
  -21.5483   -5.8062  -33.9188 C   0  0  0  0  0  0  0  0  0  0  0  0
  -21.1696   -3.1704  -25.7837 C   0  0  0  0  0  0  0  0  0  0  0  0
  -20.8476   -5.1796  -32.7176 C   0  0  0  0  0  0  0  0  0  0  0  0
  -24.3177   -4.4000  -27.0694 N   0  0  0  0  0  0  0  0  0  0  0  0
  -17.7432  -10.1215  -37.2620 N   0  0  0  0  0  0  0  0  0  0  0  0
  -16.6750   -9.0852  -38.9992 N   0  0  0  0  0  0  0  0  0  0  0  0
  -22.4974   -3.7020  -26.0021 N   0  0  0  0  0  0  0  0  0  0  0  0
  -22.4394   -3.5809  -28.3729 N   0  0  0  0  0  0  0  0  0  0  0  0
  -21.8165   -4.3510  -31.9195 N   0  3  0  0  0  0  0  0  0  0  0  0
  -17.4705   -8.1610  -38.3103 O   0  0  0  0  0  0  0  0  0  0  0  0
  -17.0563   -4.8251  -24.3466 F   0  0  0  0  0  0  0  0  0  0  0  0
  -16.5663   -6.4331  -25.7264 F   0  0  0  0  0  0  0  0  0  0  0  0
  -26.3703   -5.4033  -23.0142 H   0  0  0  0  0  0  0  0  0  0  0  0
  -24.3460   -4.6270  -21.8375 H   0  0  0  0  0  0  0  0  0  0  0  0
  -19.4581   -9.7656  -35.1872 H   0  0  0  0  0  0  0  0  0  0  0  0
  -18.6286   -6.2291  -37.5178 H   0  0  0  0  0  0  0  0  0  0  0  0
  -20.9516   -8.4552  -33.7379 H   0  0  0  0  0  0  0  0  0  0  0  0
  -20.1233   -4.9253  -36.0643 H   0  0  0  0  0  0  0  0  0  0  0  0
  -26.4970   -5.3528  -25.4957 H   0  0  0  0  0  0  0  0  0  0  0  0
  -22.3801   -3.7734  -23.1103 H   0  0  0  0  0  0  0  0  0  0  0  0
  -20.8780   -5.7002  -24.7026 H   0  0  0  0  0  0  0  0  0  0  0  0
  -19.7240   -4.5995  -23.9550 H   0  0  0  0  0  0  0  0  0  0  0  0
  -18.4644   -2.8511  -25.5451 H   0  0  0  0  0  0  0  0  0  0  0  0
  -18.8497   -2.8835  -27.2634 H   0  0  0  0  0  0  0  0  0  0  0  0
  -18.6907   -6.7945  -24.2018 H   0  0  0  0  0  0  0  0  0  0  0  0
  -19.0947   -6.8661  -25.9122 H   0  0  0  0  0  0  0  0  0  0  0  0
  -17.8152   -5.0888  -27.5288 H   0  0  0  0  0  0  0  0  0  0  0  0
  -16.6785   -4.0001  -26.7437 H   0  0  0  0  0  0  0  0  0  0  0  0
  -24.4158   -3.9557  -31.0866 H   0  0  0  0  0  0  0  0  0  0  0  0
  -24.3178   -4.9528  -29.6480 H   0  0  0  0  0  0  0  0  0  0  0  0
  -21.6447   -1.5780  -29.9067 H   0  0  0  0  0  0  0  0  0  0  0  0
  -22.7365   -1.8460  -31.2525 H   0  0  0  0  0  0  0  0  0  0  0  0
  -22.0124   -5.7083  -30.3052 H   0  0  0  0  0  0  0  0  0  0  0  0
  -23.1598   -5.9610  -31.6521 H   0  0  0  0  0  0  0  0  0  0  0  0
  -20.5328   -2.6723  -31.8858 H   0  0  0  0  0  0  0  0  0  0  0  0
  -20.4344   -3.7209  -30.4417 H   0  0  0  0  0  0  0  0  0  0  0  0
  -20.3855   -4.7854  -26.9389 H   0  0  0  0  0  0  0  0  0  0  0  0
  -23.9311   -2.4719  -29.2768 H   0  0  0  0  0  0  0  0  0  0  0  0
  -16.8598  -12.0508  -39.4188 H   0  0  0  0  0  0  0  0  0  0  0  0
  -15.2525  -11.3291  -39.1599 H   0  0  0  0  0  0  0  0  0  0  0  0
  -16.0697  -12.1405  -37.8252 H   0  0  0  0  0  0  0  0  0  0  0  0
  -21.9984   -5.0014  -34.5151 H   0  0  0  0  0  0  0  0  0  0  0  0
  -22.3879   -6.4264  -33.5787 H   0  0  0  0  0  0  0  0  0  0  0  0
  -21.0450   -2.2962  -26.4327 H   0  0  0  0  0  0  0  0  0  0  0  0
  -21.1139   -2.8169  -24.7479 H   0  0  0  0  0  0  0  0  0  0  0  0
  -20.0554   -4.4985  -33.0422 H   0  0  0  0  0  0  0  0  0  0  0  0
  -20.4278   -5.9244  -32.0348 H   0  0  0  0  0  0  0  0  0  0  0  0
  -21.4313   -3.6476  -28.3893 H   0  0  0  0  0  0  0  0  0  0  0  0
  -22.4429   -3.9007  -32.6011 H   0  0  0  0  0  0  0  0  0  0  0  0
  1  2  2  0  0  0  0
  1  7  1  0  0  0  0
  2  8  1  0  0  0  0
  3  5  1  0  0  0  0
  3  9  2  0  0  0  0
  4  6  2  0  0  0  0
  4  9  1  0  0  0  0
  5 10  2  0  0  0  0
  6 10  1  0  0  0  0
  7 11  2  0  0  0  0
  8 12  2  0  0  0  0
  9 13  1  0  0  0  0
 10 28  1  0  0  0  0
 11 12  1  0  0  0  0
 11 31  1  0  0  0  0
 12 34  1  0  0  0  0
 13 32  2  0  0  0  0
 13 37  1  0  0  0  0
 14 27  1  0  0  0  0
 14 32  1  0  0  0  0
 14 33  2  0  0  0  0
 15 31  2  0  0  0  0
 15 34  1  0  0  0  0
 15 35  1  0  0  0  0
 16 18  1  0  0  0  0
 16 24  1  0  0  0  0
 17 19  1  0  0  0  0
 17 24  1  0  0  0  0
 18 26  1  0  0  0  0
 19 26  1  0  0  0  0
 20 22  1  0  0  0  0
 20 25  1  0  0  0  0
 21 23  1  0  0  0  0
 21 25  1  0  0  0  0
 22 36  1  0  0  0  0
 23 36  1  0  0  0  0
 24 29  1  0  0  0  0
 25 35  1  0  0  0  0
 26 38  1  0  0  0  0
 26 39  1  0  0  0  0
 28 30  1  0  0  0  0
 29 34  1  0  0  0  0
 30 36  1  0  0  0  0
 33 37  1  0  0  0  0
  1 40  1  0  0  0  0
  2 41  1  0  0  0  0
  3 42  1  0  0  0  0
  4 43  1  0  0  0  0
  5 44  1  0  0  0  0
  6 45  1  0  0  0  0
  7 46  1  0  0  0  0
  8 47  1  0  0  0  0
 16 48  1  0  0  0  0
 16 49  1  0  0  0  0
 17 50  1  0  0  0  0
 17 51  1  0  0  0  0
 18 52  1  0  0  0  0
 18 53  1  0  0  0  0
 19 54  1  0  0  0  0
 19 55  1  0  0  0  0
 20 56  1  0  0  0  0
 20 57  1  0  0  0  0
 21 58  1  0  0  0  0
 21 59  1  0  0  0  0
 22 60  1  0  0  0  0
 22 61  1  0  0  0  0
 23 62  1  0  0  0  0
 23 63  1  0  0  0  0
 24 64  1  0  0  0  0
 25 65  1  0  0  0  0
 27 66  1  0  0  0  0
 27 67  1  0  0  0  0
 27 68  1  0  0  0  0
 28 69  1  0  0  0  0
 28 70  1  0  0  0  0
 29 71  1  0  0  0  0
 29 72  1  0  0  0  0
 30 73  1  0  0  0  0
 30 74  1  0  0  0  0
 35 75  1  0  0  0  0
 36 76  1  0  0  0  0
M  CHG  1  36   1
M  END
> <SMILES>
Cc1noc(n1)-c1ccc(cc1)CCN1CCC(CC1)Nc1nc2ccccc2n1CC1CCC(F)(F)CC1

> <FORMATTED_ID>
H3D-006024

> <MOLFORMULA>
C30H36F2N6O

> <Exact Mass>
534.29

> <XLogP>
8.11

> <TPSA_NOPS>
72.3

> <s_m_source_file>
ligprep_h3d.sdf

> <i_m_source_file_index>
2504

> <i_lp_mmshare_version>
55123

> <i_f3d_flags>
0

> <s_epik_input>
W0NIM11jMW5vYyhuMSktYzJbY0hdW2NIXWMoW2NIXVtjSF0yKVtDSDJdW0NIMl1OM1tDSDJdW0NIMl1bQ0hdKFtDSDJdW0NIMl0zKVtOSF1jKG40KW4oYyhjNDUpW2NIXVtjSF1bY0hdW2NIXTUpW0NIMl1bQ0hdKFtDSDJdW0NIMl02KVtDSDJdW0NIMl1DNihGKUY=

> <s_epik_cmdline>
J2VwaWtfcHl0aG9uJywgJy1waHQnLCAnMC41JywgJy1waCcsICc3LjUnLCAnLXRuJywgJzgnLCAnLW1hJywgJzUwMCcsICctaW1hZScsICc8aW5maWxlLm1hZT4nLCAnLW9tYWUnLCAnPG91dGZpbGUubWFlPic=

> <r_lp_tautomer_probability>
1

> <r_epik_Ionization_Penalty>
0.32744

> <r_epik_Ionization_Penalty_Charging>
0.00852525

> <r_epik_Ionization_Penalty_Neutral>
0.318915

> <r_epik_State_Penalty>
0.313344

> <r_epik_Charging_Adjusted_Penalty>
0.321869

> <i_epik_Tot_Q>
1

> <i_epik_Tot_abs_Q>
1

> <s_lp_Force_Field>
S-OPLS

> <r_lp_Energy>
39.3756

> <b_lp_Chiralities_Consistent>
1

> <s_lp_Variant>
ligprep_h3d.sdf:2504-1

> <ROCS_ShapeQuery>
_7L13

> <ROCS_TanimotoCombo>
0.679 

> <ROCS_ShapeTanimoto>
0.586 

> <ROCS_ColorTanimoto>
0.093 

> <ROCS_RefTversky>
0.764 

> <ROCS_RefColorTversky>
0.196 

> <ROCS_RefTverskyCombo>
0.961 

> <ROCS_FitTversky>
0.714 

> <ROCS_FitColorTversky>
0.151 

> <ROCS_FitTverskyCombo>
0.866 

> <ROCS_ColorScore>
-1.798

> <ROCS_Overlap>
1274.346

> <ROCS_Rank>
640                 

$$$$
ligprep_h3d.sdf:2670_1519
  -OEChem-08212117123D

 65 69  0     0  0  0  0  0  0999 V2000
  -16.2525   -5.8359  -25.4089 C   0  0  0  0  0  0  0  0  0  0  0  0
  -25.7742   -5.0916  -23.5375 C   0  0  0  0  0  0  0  0  0  0  0  0
  -24.9448   -4.3826  -22.6655 C   0  0  0  0  0  0  0  0  0  0  0  0
  -18.6647   -5.8117  -25.0076 C   0  0  0  0  0  0  0  0  0  0  0  0
  -17.4770   -3.7240  -25.2689 C   0  0  0  0  0  0  0  0  0  0  0  0
  -19.8574   -5.1108  -24.8293 C   0  0  0  0  0  0  0  0  0  0  0  0
  -18.6697   -3.0232  -25.0906 C   0  0  0  0  0  0  0  0  0  0  0  0
  -19.6098   -4.9309  -35.2343 C   0  0  0  0  0  0  0  0  0  0  0  0
  -21.1445   -6.5287  -34.2705 C   0  0  0  0  0  0  0  0  0  0  0  0
  -25.4068   -5.3003  -24.8728 C   0  0  0  0  0  0  0  0  0  0  0  0
  -23.7212   -3.8572  -23.0939 C   0  0  0  0  0  0  0  0  0  0  0  0
  -19.1117   -5.9205  -36.0818 C   0  0  0  0  0  0  0  0  0  0  0  0
  -20.6465   -7.5183  -35.1181 C   0  0  0  0  0  0  0  0  0  0  0  0
  -17.4744   -5.1183  -25.2274 C   0  0  0  0  0  0  0  0  0  0  0  0
  -20.6262   -5.2350  -34.3286 C   0  0  0  0  0  0  0  0  0  0  0  0
  -19.8599   -3.7166  -24.8708 C   0  0  0  0  0  0  0  0  0  0  0  0
  -24.1810   -4.7793  -25.3203 C   0  0  0  0  0  0  0  0  0  0  0  0
  -23.3759   -4.0772  -24.4277 C   0  0  0  0  0  0  0  0  0  0  0  0
  -19.6300   -7.2142  -36.0237 C   0  0  0  0  0  0  0  0  0  0  0  0
  -22.4572   -4.1951  -26.4368 C   0  0  0  0  0  0  0  0  0  0  0  0
  -19.8084   -4.6526  -29.0368 C   0  0  0  0  0  0  0  0  0  0  0  0
  -22.2703   -4.7019  -29.5916 C   0  0  0  0  0  0  0  0  0  0  0  0
  -19.5273   -5.5419  -30.2397 C   0  0  0  0  0  0  0  0  0  0  0  0
  -21.9741   -5.5906  -30.7915 C   0  0  0  0  0  0  0  0  0  0  0  0
  -21.2214   -4.8657  -28.4897 C   0  0  0  0  0  0  0  0  0  0  0  0
  -21.1622   -4.1698  -33.4164 C   0  0  0  0  0  0  0  0  0  0  0  0
  -21.1469   -2.9605  -24.6800 C   0  0  0  0  0  0  0  0  0  0  0  0
  -20.4269   -4.0722  -32.0835 C   0  0  0  0  0  0  0  0  0  0  0  0
  -15.2599   -6.4188  -25.5565 N   0  0  0  0  0  0  0  0  0  0  0  0
  -23.5938   -4.8425  -26.5631 N   0  0  0  0  0  0  0  0  0  0  0  0
  -22.2803   -3.7154  -25.1689 N   0  0  0  0  0  0  0  0  0  0  0  0
  -21.4866   -3.9656  -27.3929 N   0  0  0  0  0  0  0  0  0  0  0  0
  -19.1227   -8.2217  -36.8862 N   0  3  0  0  0  0  0  0  0  0  0  0
  -20.5764   -5.3528  -31.3073 N   0  3  0  0  0  0  0  0  0  0  0  0
  -18.2081   -7.9273  -37.6932 O   0  5  0  0  0  0  0  0  0  0  0  0
  -19.6032   -9.3789  -36.8181 O   0  0  0  0  0  0  0  0  0  0  0  0
  -26.7192   -5.4879  -23.1749 H   0  0  0  0  0  0  0  0  0  0  0  0
  -25.2551   -4.2361  -21.6339 H   0  0  0  0  0  0  0  0  0  0  0  0
  -18.6784   -6.8984  -24.9706 H   0  0  0  0  0  0  0  0  0  0  0  0
  -16.5578   -3.1689  -25.4409 H   0  0  0  0  0  0  0  0  0  0  0  0
  -20.7797   -5.6593  -24.6577 H   0  0  0  0  0  0  0  0  0  0  0  0
  -18.6626   -1.9369  -25.1264 H   0  0  0  0  0  0  0  0  0  0  0  0
  -19.1999   -3.9258  -35.2865 H   0  0  0  0  0  0  0  0  0  0  0  0
  -21.9365   -6.7750  -33.5683 H   0  0  0  0  0  0  0  0  0  0  0  0
  -26.0581   -5.8525  -25.5426 H   0  0  0  0  0  0  0  0  0  0  0  0
  -23.0782   -3.3073  -22.4160 H   0  0  0  0  0  0  0  0  0  0  0  0
  -18.3193   -5.6701  -36.7829 H   0  0  0  0  0  0  0  0  0  0  0  0
  -21.0592   -8.5226  -35.0626 H   0  0  0  0  0  0  0  0  0  0  0  0
  -19.0864   -4.8827  -28.2483 H   0  0  0  0  0  0  0  0  0  0  0  0
  -19.6553   -3.6051  -29.3053 H   0  0  0  0  0  0  0  0  0  0  0  0
  -22.3319   -3.6577  -29.9093 H   0  0  0  0  0  0  0  0  0  0  0  0
  -23.2533   -4.9633  -29.1872 H   0  0  0  0  0  0  0  0  0  0  0  0
  -18.5471   -5.3255  -30.6946 H   0  0  0  0  0  0  0  0  0  0  0  0
  -19.5478   -6.6028  -29.9452 H   0  0  0  0  0  0  0  0  0  0  0  0
  -22.0409   -6.6526  -30.5060 H   0  0  0  0  0  0  0  0  0  0  0  0
  -22.6729   -5.4104  -31.6250 H   0  0  0  0  0  0  0  0  0  0  0  0
  -21.2900   -5.8983  -28.0938 H   0  0  0  0  0  0  0  0  0  0  0  0
  -21.0828   -3.2008  -33.9268 H   0  0  0  0  0  0  0  0  0  0  0  0
  -22.2348   -4.3234  -33.2398 H   0  0  0  0  0  0  0  0  0  0  0  0
  -21.3183   -2.7312  -23.6212 H   0  0  0  0  0  0  0  0  0  0  0  0
  -21.1231   -1.9986  -25.2065 H   0  0  0  0  0  0  0  0  0  0  0  0
  -20.8571   -3.2828  -31.4600 H   0  0  0  0  0  0  0  0  0  0  0  0
  -19.3537   -3.8954  -32.2026 H   0  0  0  0  0  0  0  0  0  0  0  0
  -20.9274   -3.1265  -27.3279 H   0  0  0  0  0  0  0  0  0  0  0  0
  -20.4014   -6.1248  -32.0147 H   0  0  0  0  0  0  0  0  0  0  0  0
  1 14  1  0  0  0  0
  1 29  3  0  0  0  0
  2  3  2  0  0  0  0
  2 10  1  0  0  0  0
  3 11  1  0  0  0  0
  4  6  1  0  0  0  0
  4 14  2  0  0  0  0
  5  7  2  0  0  0  0
  5 14  1  0  0  0  0
  6 16  2  0  0  0  0
  7 16  1  0  0  0  0
  8 12  1  0  0  0  0
  8 15  2  0  0  0  0
  9 13  2  0  0  0  0
  9 15  1  0  0  0  0
 10 17  2  0  0  0  0
 11 18  2  0  0  0  0
 12 19  2  0  0  0  0
 13 19  1  0  0  0  0
 15 26  1  0  0  0  0
 16 27  1  0  0  0  0
 17 18  1  0  0  0  0
 17 30  1  0  0  0  0
 18 31  1  0  0  0  0
 19 33  1  0  0  0  0
 20 30  2  0  0  0  0
 20 31  1  0  0  0  0
 20 32  1  0  0  0  0
 21 23  1  0  0  0  0
 21 25  1  0  0  0  0
 22 24  1  0  0  0  0
 22 25  1  0  0  0  0
 23 34  1  0  0  0  0
 24 34  1  0  0  0  0
 25 32  1  0  0  0  0
 26 28  1  0  0  0  0
 27 31  1  0  0  0  0
 28 34  1  0  0  0  0
 33 35  1  0  0  0  0
 33 36  2  0  0  0  0
  2 37  1  0  0  0  0
  3 38  1  0  0  0  0
  4 39  1  0  0  0  0
  5 40  1  0  0  0  0
  6 41  1  0  0  0  0
  7 42  1  0  0  0  0
  8 43  1  0  0  0  0
  9 44  1  0  0  0  0
 10 45  1  0  0  0  0
 11 46  1  0  0  0  0
 12 47  1  0  0  0  0
 13 48  1  0  0  0  0
 21 49  1  0  0  0  0
 21 50  1  0  0  0  0
 22 51  1  0  0  0  0
 22 52  1  0  0  0  0
 23 53  1  0  0  0  0
 23 54  1  0  0  0  0
 24 55  1  0  0  0  0
 24 56  1  0  0  0  0
 25 57  1  0  0  0  0
 26 58  1  0  0  0  0
 26 59  1  0  0  0  0
 27 60  1  0  0  0  0
 27 61  1  0  0  0  0
 28 62  1  0  0  0  0
 28 63  1  0  0  0  0
 32 64  1  0  0  0  0
 34 65  1  0  0  0  0
M  CHG  3  33   1  34   1  35  -1
M  END
> <SMILES>
[O-][N+](=O)c1ccc(cc1)CCN1CCC(CC1)Nc1nc2ccccc2n1Cc1ccc(cc1)C#N

> <FORMATTED_ID>
H3D-007533

> <MOLFORMULA>
C28H28N6O2

> <Exact Mass>
480.23

> <XLogP>
6.39

> <TPSA_NOPS>
100

> <s_m_source_file>
ligprep_h3d.sdf

> <i_m_source_file_index>
2670

> <i_lp_mmshare_version>
55123

> <i_f3d_flags>
0

> <s_epik_input>
W08tXVtOK10oPU8pYzFbY0hdW2NIXWMoW2NIXVtjSF0xKVtDSDJdW0NIMl1OMltDSDJdW0NIMl1bQ0hdKFtDSDJdW0NIMl0yKVtOSF1jKG4zKW4oYyhjMzQpW2NIXVtjSF1bY0hdW2NIXTQpW0NIMl1jNVtjSF1bY0hdYyhDI04pW2NIXVtjSF01

> <s_epik_cmdline>
J2VwaWtfcHl0aG9uJywgJy1waHQnLCAnMC41JywgJy1waCcsICc3LjUnLCAnLXRuJywgJzgnLCAnLW1hJywgJzUwMCcsICctaW1hZScsICc8aW5maWxlLm1hZT4nLCAnLW9tYWUnLCAnPG91dGZpbGUubWFlPic=

> <r_epik_Ionization_Penalty>
0.235184

> <r_epik_Ionization_Penalty_Charging>
0.00852525

> <r_epik_Ionization_Penalty_Neutral>
0.226659

> <r_epik_State_Penalty>
0.217166

> <r_epik_Charging_Adjusted_Penalty>
0.225691

> <i_epik_Tot_Q>
1

> <i_epik_Tot_abs_Q>
3

> <s_lp_Force_Field>
S-OPLS

> <r_lp_Energy>
45.402

> <b_lp_Chiralities_Consistent>
1

> <s_lp_Variant>
ligprep_h3d.sdf:2670-1

> <ROCS_ShapeQuery>
_7L13

> <ROCS_TanimotoCombo>
0.673 

> <ROCS_ShapeTanimoto>
0.622 

> <ROCS_ColorTanimoto>
0.051 

> <ROCS_RefTversky>
0.764 

> <ROCS_RefColorTversky>
0.112 

> <ROCS_RefTverskyCombo>
0.876 

> <ROCS_FitTversky>
0.770 

> <ROCS_FitColorTversky>
0.086 

> <ROCS_FitTverskyCombo>
0.856 

> <ROCS_ColorScore>
-1.022

> <ROCS_Overlap>
1268.800

> <ROCS_Rank>
641                 

$$$$
ligprep_h3d.sdf:1222_1212
  -OEChem-08212117123D

 71 75  0     0  0  0  0  0  0999 V2000
  -20.0209   -4.4147  -32.2719 C   0  0  0  0  0  0  0  0  0  0  0  0
  -20.4851   -6.7397  -31.8074 C   0  0  0  0  0  0  0  0  0  0  0  0
  -19.5027   -4.7671  -33.5180 C   0  0  0  0  0  0  0  0  0  0  0  0
  -19.9671   -7.0921  -33.0536 C   0  0  0  0  0  0  0  0  0  0  0  0
  -16.6591   -5.8130  -26.4299 C   0  0  0  0  0  0  0  0  0  0  0  0
  -22.9303   -4.3867  -28.7583 C   0  0  0  0  0  0  0  0  0  0  0  0
  -20.5138   -4.1944  -25.3829 C   0  0  0  0  0  0  0  0  0  0  0  0
  -16.5359   -4.4371  -26.7012 C   0  0  0  0  0  0  0  0  0  0  0  0
  -20.7611   -4.6183  -27.7502 C   0  0  0  0  0  0  0  0  0  0  0  0
  -20.5120   -5.4010  -31.4165 C   0  0  0  0  0  0  0  0  0  0  0  0
  -21.0492   -5.0354  -30.1239 C   0  0  0  0  0  0  0  0  0  0  0  0
  -19.4759   -6.1058  -33.9089 C   0  0  0  0  0  0  0  0  0  0  0  0
  -22.4015   -4.7410  -30.0020 C   0  0  0  0  0  0  0  0  0  0  0  0
  -20.2289   -4.9747  -29.0010 C   0  0  0  0  0  0  0  0  0  0  0  0
  -22.1332   -4.3182  -27.6190 C   0  0  0  0  0  0  0  0  0  0  0  0
  -19.9581   -4.5493  -26.6036 C   0  0  0  0  0  0  0  0  0  0  0  0
  -21.8657   -3.9186  -25.3532 C   0  0  0  0  0  0  0  0  0  0  0  0
  -18.0136   -6.0287  -26.3578 C   0  0  0  0  0  0  0  0  0  0  0  0
  -22.5107   -3.5423  -24.1069 C   0  0  0  0  0  0  0  0  0  0  0  0
  -26.1985   -4.9663  -23.0429 C   0  0  0  0  0  0  0  0  0  0  0  0
  -21.0748   -6.3051  -36.3160 C   0  0  0  0  0  0  0  0  0  0  0  0
  -19.3191   -7.5774  -37.3636 C   0  0  0  0  0  0  0  0  0  0  0  0
  -22.0878   -7.0334  -37.1946 C   0  0  0  0  0  0  0  0  0  0  0  0
  -20.3735   -8.2749  -38.2184 C   0  0  0  0  0  0  0  0  0  0  0  0
  -23.3270   -4.7896  -31.1762 C   0  0  0  0  0  0  0  0  0  0  0  0
  -18.7777   -5.3061  -29.2096 C   0  0  0  0  0  0  0  0  0  0  0  0
  -18.7761   -7.2661  -26.0995 C   0  0  0  0  0  0  0  0  0  0  0  0
  -18.9180   -6.4852  -35.2502 C   0  0  0  0  0  0  0  0  0  0  0  0
  -25.2391   -4.0618  -22.2597 C   0  0  0  0  0  0  0  0  0  0  0  0
  -24.6625   -2.8703  -23.0074 C   0  0  0  0  0  0  0  0  0  0  0  0
  -17.7179   -3.8222  -26.7952 N   0  0  0  0  0  0  0  0  0  0  0  0
  -22.6752   -3.9734  -26.4357 N   0  0  0  0  0  0  0  0  0  0  0  0
  -18.5967   -4.8163  -26.5819 N   0  0  0  0  0  0  0  0  0  0  0  0
  -19.9080   -7.1670  -36.0813 N   0  0  0  0  0  0  0  0  0  0  0  0
  -23.8850   -3.2777  -24.1556 N   0  0  0  0  0  0  0  0  0  0  0  0
  -25.6642   -5.5561  -24.0264 O   0  5  0  0  0  0  0  0  0  0  0  0
  -21.8500   -3.4446  -23.0568 O   0  0  0  0  0  0  0  0  0  0  0  0
  -27.3871   -5.0258  -22.6251 O   0  0  0  0  0  0  0  0  0  0  0  0
  -21.4896   -7.4107  -38.4352 O   0  0  0  0  0  0  0  0  0  0  0  0
  -20.0343   -3.3669  -31.9813 H   0  0  0  0  0  0  0  0  0  0  0  0
  -20.8649   -7.5200  -31.1520 H   0  0  0  0  0  0  0  0  0  0  0  0
  -19.1212   -3.9922  -34.1776 H   0  0  0  0  0  0  0  0  0  0  0  0
  -19.9505   -8.1376  -33.3502 H   0  0  0  0  0  0  0  0  0  0  0  0
  -15.8741   -6.5443  -26.3050 H   0  0  0  0  0  0  0  0  0  0  0  0
  -23.9925   -4.1585  -28.6775 H   0  0  0  0  0  0  0  0  0  0  0  0
  -19.9140   -4.1334  -24.4789 H   0  0  0  0  0  0  0  0  0  0  0  0
  -15.6340   -3.8571  -26.8346 H   0  0  0  0  0  0  0  0  0  0  0  0
  -20.7690   -5.3796  -36.8169 H   0  0  0  0  0  0  0  0  0  0  0  0
  -21.5466   -6.0363  -35.3620 H   0  0  0  0  0  0  0  0  0  0  0  0
  -18.4765   -8.2605  -37.1940 H   0  0  0  0  0  0  0  0  0  0  0  0
  -18.9436   -6.7026  -37.9069 H   0  0  0  0  0  0  0  0  0  0  0  0
  -22.4240   -7.9477  -36.6950 H   0  0  0  0  0  0  0  0  0  0  0  0
  -22.9731   -6.4156  -37.3877 H   0  0  0  0  0  0  0  0  0  0  0  0
  -19.9653   -8.5947  -39.1851 H   0  0  0  0  0  0  0  0  0  0  0  0
  -20.7402   -9.1682  -37.7029 H   0  0  0  0  0  0  0  0  0  0  0  0
  -23.3620   -3.8125  -31.6699 H   0  0  0  0  0  0  0  0  0  0  0  0
  -22.9999   -5.5402  -31.9049 H   0  0  0  0  0  0  0  0  0  0  0  0
  -24.3423   -5.0637  -30.8665 H   0  0  0  0  0  0  0  0  0  0  0  0
  -18.6179   -6.3773  -29.0631 H   0  0  0  0  0  0  0  0  0  0  0  0
  -18.4597   -5.0320  -30.2193 H   0  0  0  0  0  0  0  0  0  0  0  0
  -18.1495   -4.7515  -28.5069 H   0  0  0  0  0  0  0  0  0  0  0  0
  -18.9588   -7.4022  -25.0210 H   0  0  0  0  0  0  0  0  0  0  0  0
  -19.7555   -7.2622  -26.6075 H   0  0  0  0  0  0  0  0  0  0  0  0
  -18.2465   -8.1623  -26.4656 H   0  0  0  0  0  0  0  0  0  0  0  0
  -18.5774   -5.5962  -35.7922 H   0  0  0  0  0  0  0  0  0  0  0  0
  -18.0553   -7.1511  -35.1429 H   0  0  0  0  0  0  0  0  0  0  0  0
  -24.4216   -4.6857  -21.8765 H   0  0  0  0  0  0  0  0  0  0  0  0
  -25.7983   -3.6904  -21.3918 H   0  0  0  0  0  0  0  0  0  0  0  0
  -25.4471   -2.1937  -23.3603 H   0  0  0  0  0  0  0  0  0  0  0  0
  -23.9930   -2.3030  -22.3531 H   0  0  0  0  0  0  0  0  0  0  0  0
  -24.3643   -3.3105  -25.0494 H   0  0  0  0  0  0  0  0  0  0  0  0
  1  3  1  0  0  0  0
  1 10  2  0  0  0  0
  2  4  2  0  0  0  0
  2 10  1  0  0  0  0
  3 12  2  0  0  0  0
  4 12  1  0  0  0  0
  5  8  1  0  0  0  0
  5 18  2  0  0  0  0
  6 13  2  0  0  0  0
  6 15  1  0  0  0  0
  7 16  1  0  0  0  0
  7 17  2  0  0  0  0
  8 31  2  0  0  0  0
  9 14  1  0  0  0  0
  9 15  1  0  0  0  0
  9 16  2  0  0  0  0
 10 11  1  0  0  0  0
 11 13  1  0  0  0  0
 11 14  2  0  0  0  0
 12 28  1  0  0  0  0
 13 25  1  0  0  0  0
 14 26  1  0  0  0  0
 15 32  2  0  0  0  0
 16 33  1  0  0  0  0
 17 19  1  0  0  0  0
 17 32  1  0  0  0  0
 18 27  1  0  0  0  0
 18 33  1  0  0  0  0
 19 35  1  0  0  0  0
 19 37  2  0  0  0  0
 20 29  1  0  0  0  0
 20 36  1  0  0  0  0
 20 38  2  0  0  0  0
 21 23  1  0  0  0  0
 21 34  1  0  0  0  0
 22 24  1  0  0  0  0
 22 34  1  0  0  0  0
 23 39  1  0  0  0  0
 24 39  1  0  0  0  0
 28 34  1  0  0  0  0
 29 30  1  0  0  0  0
 30 35  1  0  0  0  0
 31 33  1  0  0  0  0
  1 40  1  0  0  0  0
  2 41  1  0  0  0  0
  3 42  1  0  0  0  0
  4 43  1  0  0  0  0
  5 44  1  0  0  0  0
  6 45  1  0  0  0  0
  7 46  1  0  0  0  0
  8 47  1  0  0  0  0
 21 48  1  0  0  0  0
 21 49  1  0  0  0  0
 22 50  1  0  0  0  0
 22 51  1  0  0  0  0
 23 52  1  0  0  0  0
 23 53  1  0  0  0  0
 24 54  1  0  0  0  0
 24 55  1  0  0  0  0
 25 56  1  0  0  0  0
 25 57  1  0  0  0  0
 25 58  1  0  0  0  0
 26 59  1  0  0  0  0
 26 60  1  0  0  0  0
 26 61  1  0  0  0  0
 27 62  1  0  0  0  0
 27 63  1  0  0  0  0
 27 64  1  0  0  0  0
 28 65  1  0  0  0  0
 28 66  1  0  0  0  0
 29 67  1  0  0  0  0
 29 68  1  0  0  0  0
 30 69  1  0  0  0  0
 30 70  1  0  0  0  0
 35 71  1  0  0  0  0
M  CHG  1  36  -1
M  END
> <SMILES>
Cc1cc2nc(cc(c2c(c1-c1ccc(cc1)CN1CCOCC1)C)-n1nccc1C)C(=O)NCCC(=O)O

> <FORMATTED_ID>
H3D-008380

> <MOLFORMULA>
C30H33N5O4

> <Exact Mass>
527.25

> <XLogP>
3.31

> <TPSA_NOPS>
109.6

> <s_m_source_file>
ligprep_h3d.sdf

> <i_m_source_file_index>
1222

> <i_lp_mmshare_version>
55123

> <i_f3d_flags>
0

> <s_epik_input>
Tz1DKFtPSF0pW0NIMl1bQ0gyXVtOSF1DKD1PKWMobjEpW2NIXWMoLW4ybltjSF1bY0hdYzJbQ0gzXSljKGMxMyljKFtDSDNdKWMoYyhbQ0gzXSlbY0hdMyktYzRbY0hdW2NIXWMoW2NIXVtjSF00KVtDSDJdTjVbQ0gyXVtDSDJdT1tDSDJdW0NIMl01

> <s_epik_cmdline>
J2VwaWtfcHl0aG9uJywgJy1waHQnLCAnMC41JywgJy1waCcsICc3LjUnLCAnLXRuJywgJzgnLCAnLW1hJywgJzUwMCcsICctaW1hZScsICc8aW5maWxlLm1hZT4nLCAnLW9tYWUnLCAnPG91dGZpbGUubWFlPic=

> <r_lp_tautomer_probability>
1

> <r_epik_Ionization_Penalty>
0.106119

> <r_epik_Ionization_Penalty_Charging>
0.00055954

> <r_epik_Ionization_Penalty_Neutral>
0.105559

> <r_epik_State_Penalty>
0.095414

> <r_epik_Charging_Adjusted_Penalty>
0.0959736

> <i_epik_Tot_Q>
-1

> <i_epik_Tot_abs_Q>
1

> <s_lp_Force_Field>
S-OPLS

> <r_lp_Energy>
63.2205

> <b_lp_Chiralities_Consistent>
1

> <s_lp_Variant>
ligprep_h3d.sdf:1222-1

> <ROCS_ShapeQuery>
_7L13

> <ROCS_TanimotoCombo>
0.698 

> <ROCS_ShapeTanimoto>
0.582 

> <ROCS_ColorTanimoto>
0.116 

> <ROCS_RefTversky>
0.764 

> <ROCS_RefColorTversky>
0.258 

> <ROCS_RefTverskyCombo>
1.022 

> <ROCS_FitTversky>
0.709 

> <ROCS_FitColorTversky>
0.173 

> <ROCS_FitTverskyCombo>
0.883 

> <ROCS_ColorScore>
-2.385

> <ROCS_Overlap>
1274.719

> <ROCS_Rank>
642                 

$$$$
ligprep_h3d.sdf:692_724
  -OEChem-08212117123D

 64 67  0     1  0  0  0  0  0999 V2000
  -20.6206   -4.3818  -31.5450 C   0  0  0  0  0  0  0  0  0  0  0  0
  -20.1770   -4.5094  -32.6540 C   0  0  0  0  0  0  0  0  0  0  0  0
  -16.9903   -6.2514  -26.4355 C   0  0  0  0  0  0  0  0  0  0  0  0
  -22.8912   -3.4402  -28.7545 C   0  0  0  0  0  0  0  0  0  0  0  0
  -20.8518   -4.8786  -25.4315 C   0  0  0  0  0  0  0  0  0  0  0  0
  -17.6813   -7.1797  -27.2370 C   0  0  0  0  0  0  0  0  0  0  0  0
  -21.1478   -4.2317  -30.2236 C   0  0  0  0  0  0  0  0  0  0  0  0
  -20.9816   -4.5652  -27.8252 C   0  0  0  0  0  0  0  0  0  0  0  0
  -22.3676   -3.5921  -30.0408 C   0  0  0  0  0  0  0  0  0  0  0  0
  -20.4547   -4.7180  -29.1189 C   0  0  0  0  0  0  0  0  0  0  0  0
  -22.2195   -3.9169  -27.6321 C   0  0  0  0  0  0  0  0  0  0  0  0
  -20.3049   -5.0451  -26.6956 C   0  0  0  0  0  0  0  0  0  0  0  0
  -22.0677   -4.2317  -25.3423 C   0  0  0  0  0  0  0  0  0  0  0  0
  -17.9306   -5.3001  -26.1236 C   0  0  0  0  0  0  0  0  0  0  0  0
  -22.6974   -4.0278  -24.0489 C   0  0  0  0  0  0  0  0  0  0  0  0
  -20.5711   -6.8798  -33.8365 C   0  0  0  0  0  0  0  0  0  0  0  0
  -19.3195   -6.2484  -35.7938 C   0  0  0  0  0  0  0  0  0  0  0  0
  -20.3515   -8.3528  -34.1988 C   0  0  1  0  0  0  0  0  0  0  0  0
  -19.1238   -7.7333  -36.1200 C   0  0  2  0  0  0  0  0  0  0  0  0
  -23.1525   -3.0500  -31.1931 C   0  0  0  0  0  0  0  0  0  0  0  0
  -19.1434   -5.3989  -29.3951 C   0  0  0  0  0  0  0  0  0  0  0  0
  -17.8210   -4.0721  -25.3117 C   0  0  0  0  0  0  0  0  0  0  0  0
  -21.5274   -9.2090  -33.7487 C   0  0  0  0  0  0  0  0  0  0  0  0
  -19.0514   -7.9590  -37.6241 C   0  0  0  0  0  0  0  0  0  0  0  0
  -24.7259   -4.4638  -22.6397 C   0  0  0  0  0  0  0  0  0  0  0  0
  -19.6364   -4.6617  -34.0040 C   0  0  0  0  0  0  0  0  0  0  0  0
  -18.9618   -6.8482  -27.4226 N   0  0  0  0  0  0  0  0  0  0  0  0
  -22.7527   -3.7539  -26.4065 N   0  0  0  0  0  0  0  0  0  0  0  0
  -19.0829   -5.7010  -26.7332 N   0  0  0  0  0  0  0  0  0  0  0  0
  -19.4507   -6.0720  -34.3401 N   0  0  0  0  0  0  0  0  0  0  0  0
  -23.9626   -4.5974  -23.8598 N   0  0  0  0  0  0  0  0  0  0  0  0
  -22.1305   -3.3559  -23.1681 O   0  0  0  0  0  0  0  0  0  0  0  0
  -20.2303   -8.4911  -35.6187 O   0  0  0  0  0  0  0  0  0  0  0  0
  -15.9550   -6.2714  -26.1278 H   0  0  0  0  0  0  0  0  0  0  0  0
  -23.8487   -2.9365  -28.6270 H   0  0  0  0  0  0  0  0  0  0  0  0
  -20.3493   -5.2424  -24.5398 H   0  0  0  0  0  0  0  0  0  0  0  0
  -17.3051   -8.0840  -27.6934 H   0  0  0  0  0  0  0  0  0  0  0  0
  -21.5161   -6.5243  -34.2692 H   0  0  0  0  0  0  0  0  0  0  0  0
  -20.6421   -6.7836  -32.7464 H   0  0  0  0  0  0  0  0  0  0  0  0
  -18.4569   -5.6814  -36.1640 H   0  0  0  0  0  0  0  0  0  0  0  0
  -20.2164   -5.8686  -36.3015 H   0  0  0  0  0  0  0  0  0  0  0  0
  -19.4379   -8.7354  -33.7253 H   0  0  0  0  0  0  0  0  0  0  0  0
  -18.1991   -8.1107  -35.6641 H   0  0  0  0  0  0  0  0  0  0  0  0
  -22.8634   -2.0124  -31.3919 H   0  0  0  0  0  0  0  0  0  0  0  0
  -22.9818   -3.6424  -32.0995 H   0  0  0  0  0  0  0  0  0  0  0  0
  -24.2286   -3.0819  -30.9864 H   0  0  0  0  0  0  0  0  0  0  0  0
  -18.3334   -4.6656  -29.3721 H   0  0  0  0  0  0  0  0  0  0  0  0
  -18.9453   -6.1738  -28.6494 H   0  0  0  0  0  0  0  0  0  0  0  0
  -19.1586   -5.8842  -30.3751 H   0  0  0  0  0  0  0  0  0  0  0  0
  -17.5316   -3.2093  -25.9337 H   0  0  0  0  0  0  0  0  0  0  0  0
  -18.7717   -3.8208  -24.8113 H   0  0  0  0  0  0  0  0  0  0  0  0
  -17.0712   -4.1729  -24.5084 H   0  0  0  0  0  0  0  0  0  0  0  0
  -22.4491   -8.8484  -34.2064 H   0  0  0  0  0  0  0  0  0  0  0  0
  -21.6302   -9.1624  -32.6643 H   0  0  0  0  0  0  0  0  0  0  0  0
  -21.3690  -10.2465  -34.0442 H   0  0  0  0  0  0  0  0  0  0  0  0
  -19.9603   -7.5916  -38.1013 H   0  0  0  0  0  0  0  0  0  0  0  0
  -18.9459   -9.0229  -37.8377 H   0  0  0  0  0  0  0  0  0  0  0  0
  -18.1947   -7.4284  -38.0408 H   0  0  0  0  0  0  0  0  0  0  0  0
  -24.5319   -5.3290  -21.9887 H   0  0  0  0  0  0  0  0  0  0  0  0
  -24.4287   -3.5406  -22.1207 H   0  0  0  0  0  0  0  0  0  0  0  0
  -25.7981   -4.4198  -22.8812 H   0  0  0  0  0  0  0  0  0  0  0  0
  -18.6630   -4.1704  -34.0926 H   0  0  0  0  0  0  0  0  0  0  0  0
  -20.3100   -4.2318  -34.7509 H   0  0  0  0  0  0  0  0  0  0  0  0
  -24.4079   -5.0824  -24.6319 H   0  0  0  0  0  0  0  0  0  0  0  0
  1  2  3  0  0  0  0
  1  7  1  0  0  0  0
  2 26  1  0  0  0  0
  3  6  1  0  0  0  0
  3 14  2  0  0  0  0
  4  9  2  0  0  0  0
  4 11  1  0  0  0  0
  5 12  1  0  0  0  0
  5 13  2  0  0  0  0
  6 27  2  0  0  0  0
  7  9  1  0  0  0  0
  7 10  2  0  0  0  0
  8 10  1  0  0  0  0
  8 11  1  0  0  0  0
  8 12  2  0  0  0  0
  9 20  1  0  0  0  0
 10 21  1  0  0  0  0
 11 28  2  0  0  0  0
 12 29  1  0  0  0  0
 13 15  1  0  0  0  0
 13 28  1  0  0  0  0
 14 22  1  0  0  0  0
 14 29  1  0  0  0  0
 15 31  1  0  0  0  0
 15 32  2  0  0  0  0
 16 18  1  0  0  0  0
 16 30  1  0  0  0  0
 17 19  1  0  0  0  0
 17 30  1  0  0  0  0
 18 23  1  0  0  0  0
 18 33  1  0  0  0  0
 19 24  1  0  0  0  0
 19 33  1  0  0  0  0
 25 31  1  0  0  0  0
 26 30  1  0  0  0  0
 27 29  1  0  0  0  0
  3 34  1  0  0  0  0
  4 35  1  0  0  0  0
  5 36  1  0  0  0  0
  6 37  1  0  0  0  0
 16 38  1  0  0  0  0
 16 39  1  0  0  0  0
 17 40  1  0  0  0  0
 17 41  1  0  0  0  0
 18 42  1  0  0  0  0
 19 43  1  0  0  0  0
 20 44  1  0  0  0  0
 20 45  1  0  0  0  0
 20 46  1  0  0  0  0
 21 47  1  0  0  0  0
 21 48  1  0  0  0  0
 21 49  1  0  0  0  0
 22 50  1  0  0  0  0
 22 51  1  0  0  0  0
 22 52  1  0  0  0  0
 23 53  1  0  0  0  0
 23 54  1  0  0  0  0
 23 55  1  0  0  0  0
 24 56  1  0  0  0  0
 24 57  1  0  0  0  0
 24 58  1  0  0  0  0
 25 59  1  0  0  0  0
 25 60  1  0  0  0  0
 25 61  1  0  0  0  0
 26 62  1  0  0  0  0
 26 63  1  0  0  0  0
 31 64  1  0  0  0  0
M  END
> <SMILES>
CNC(=O)c1cc(c2c(c(c(cc2n1)C)C#CCN1C[C@@H](C)O[C@@H](C)C1)C)-n1nccc1C

> <FORMATTED_ID>
H3D-004886

> <MOLFORMULA>
C26H31N5O2

> <Exact Mass>
445.25

> <XLogP>
3.63

> <TPSA_NOPS>
72.3

> <s_m_source_file>
ligprep_h3d.sdf

> <i_m_source_file_index>
692

> <i_lp_mmshare_version>
55123

> <i_f3d_flags>
0

> <s_epik_input>
W0NIM11jMVtjSF1bY0hdbm4xLWMyW2NIXWMoQyg9TylbTkhdW0NIM10pbmMoYzIzKVtjSF1jKFtDSDNdKWMoYzNbQ0gzXSlDI0NbQ0gyXU40W0NIMl1bQ0BASF0oW0NIM10pT1tDQEBIXShbQ0gzXSlbQ0gyXTQ=

> <s_epik_cmdline>
J2VwaWtfcHl0aG9uJywgJy1waHQnLCAnMC41JywgJy1waCcsICc3LjUnLCAnLXRuJywgJzgnLCAnLW1hJywgJzUwMCcsICctaW1hZScsICc8aW5maWxlLm1hZT4nLCAnLW9tYWUnLCAnPG91dGZpbGUubWFlPic=

> <r_lp_tautomer_probability>
1

> <r_epik_Ionization_Penalty>
0.0036575

> <r_epik_Ionization_Penalty_Charging>
0

> <r_epik_Ionization_Penalty_Neutral>
0.0036575

> <r_epik_State_Penalty>
-0

> <r_epik_Charging_Adjusted_Penalty>
0

> <i_epik_Tot_Q>
0

> <i_epik_Tot_abs_Q>
0

> <s_lp_Force_Field>
S-OPLS

> <r_lp_Energy>
52.4785

> <b_lp_Chiralities_Consistent>
1

> <s_lp_Variant>
ligprep_h3d.sdf:692-1

> <ROCS_ShapeQuery>
_7L13

> <ROCS_TanimotoCombo>
0.781 

> <ROCS_ShapeTanimoto>
0.662 

> <ROCS_ColorTanimoto>
0.119 

> <ROCS_RefTversky>
0.764 

> <ROCS_RefColorTversky>
0.223 

> <ROCS_RefTverskyCombo>
0.988 

> <ROCS_FitTversky>
0.831 

> <ROCS_FitColorTversky>
0.203 

> <ROCS_FitTverskyCombo>
1.034 

> <ROCS_ColorScore>
-2.022

> <ROCS_Overlap>
1263.571

> <ROCS_Rank>
643                 

$$$$
ligprep_h3d.sdf:4726_1745
  -OEChem-08212117123D

 61 65  0     1  0  0  0  0  0999 V2000
  -24.9770   -5.0384  -22.5481 C   0  0  0  0  0  0  0  0  0  0  0  0
  -23.6657   -4.7867  -22.9514 C   0  0  0  0  0  0  0  0  0  0  0  0
  -26.0336   -4.8127  -23.4304 C   0  0  0  0  0  0  0  0  0  0  0  0
  -20.1112   -4.2387  -34.1587 C   0  0  0  0  0  0  0  0  0  0  0  0
  -20.4408   -6.1103  -32.6670 C   0  0  0  0  0  0  0  0  0  0  0  0
  -23.4109   -4.3091  -24.2370 C   0  0  0  0  0  0  0  0  0  0  0  0
  -25.7788   -4.3351  -24.7159 C   0  0  0  0  0  0  0  0  0  0  0  0
  -19.6039   -5.1019  -35.1298 C   0  0  0  0  0  0  0  0  0  0  0  0
  -19.9335   -6.9736  -33.6381 C   0  0  0  0  0  0  0  0  0  0  0  0
  -17.0888   -6.2238  -26.0833 C   0  0  0  0  0  0  0  0  0  0  0  0
  -16.9333   -3.8690  -25.5660 C   0  0  0  0  0  0  0  0  0  0  0  0
  -15.1208   -5.3561  -24.9828 C   0  0  0  0  0  0  0  0  0  0  0  0
  -20.5296   -4.7429  -32.9272 C   0  0  0  0  0  0  0  0  0  0  0  0
  -17.6412   -4.9432  -26.1052 C   0  0  0  0  0  0  0  0  0  0  0  0
  -24.4675   -4.0833  -25.1193 C   0  0  0  0  0  0  0  0  0  0  0  0
  -19.5150   -6.4694  -34.8695 C   0  0  0  0  0  0  0  0  0  0  0  0
  -15.8286   -6.4303  -25.5220 C   0  0  0  0  0  0  0  0  0  0  0  0
  -15.6731   -4.0755  -25.0048 C   0  0  0  0  0  0  0  0  0  0  0  0
  -22.0913   -4.4913  -30.9972 C   0  0  0  0  0  0  0  0  0  0  0  0
  -22.6920   -5.1130  -28.6724 C   0  0  0  0  0  0  0  0  0  0  0  0
  -19.8299   -5.6324  -27.2788 C   0  0  0  0  0  0  0  0  0  0  0  0
  -19.8409   -3.6690  -26.5301 C   0  0  0  0  0  0  0  0  0  0  0  0
  -20.6146   -3.9016  -29.0233 C   0  0  0  0  0  0  0  0  0  0  0  0
  -22.2148   -4.6161  -27.3115 C   0  0  1  0  0  0  0  0  0  0  0  0
  -20.7222   -4.3944  -27.5764 C   0  0  0  0  0  0  0  0  0  0  0  0
  -21.0757   -3.8149  -31.8832 C   0  0  0  0  0  0  0  0  0  0  0  0
  -22.9143   -3.3172  -26.9154 C   0  0  0  0  0  0  0  0  0  0  0  0
  -18.9074   -4.7351  -26.6697 N   0  0  0  0  0  0  0  0  0  0  0  0
  -21.8006   -4.4891  -29.6422 N   0  0  0  0  0  0  0  0  0  0  0  0
  -24.2127   -3.6052  -26.4067 N   0  0  0  0  0  0  0  0  0  0  0  0
  -23.0988   -5.0056  -31.4856 O   0  0  0  0  0  0  0  0  0  0  0  0
  -19.0212   -7.3117  -35.8177 O   0  0  0  0  0  0  0  0  0  0  0  0
  -15.2978   -7.6599  -25.5028 F   0  0  0  0  0  0  0  0  0  0  0  0
  -14.9925   -3.0436  -24.4888 F   0  0  0  0  0  0  0  0  0  0  0  0
  -25.1752   -5.4101  -21.5469 H   0  0  0  0  0  0  0  0  0  0  0  0
  -22.8433   -4.9624  -22.2645 H   0  0  0  0  0  0  0  0  0  0  0  0
  -27.0547   -5.0088  -23.1161 H   0  0  0  0  0  0  0  0  0  0  0  0
  -20.1767   -3.1747  -34.3700 H   0  0  0  0  0  0  0  0  0  0  0  0
  -20.7643   -6.5121  -31.7102 H   0  0  0  0  0  0  0  0  0  0  0  0
  -22.3855   -4.1160  -24.5415 H   0  0  0  0  0  0  0  0  0  0  0  0
  -26.6101   -4.1631  -25.3949 H   0  0  0  0  0  0  0  0  0  0  0  0
  -19.2798   -4.7031  -36.0874 H   0  0  0  0  0  0  0  0  0  0  0  0
  -19.8672   -8.0377  -33.4294 H   0  0  0  0  0  0  0  0  0  0  0  0
  -17.6313   -7.0675  -26.5014 H   0  0  0  0  0  0  0  0  0  0  0  0
  -17.3539   -2.8668  -25.5788 H   0  0  0  0  0  0  0  0  0  0  0  0
  -14.1390   -5.5174  -24.5474 H   0  0  0  0  0  0  0  0  0  0  0  0
  -22.5512   -6.1964  -28.7646 H   0  0  0  0  0  0  0  0  0  0  0  0
  -23.7389   -4.8828  -28.8942 H   0  0  0  0  0  0  0  0  0  0  0  0
  -20.2399   -6.3537  -26.5631 H   0  0  0  0  0  0  0  0  0  0  0  0
  -19.4118   -6.1615  -28.1393 H   0  0  0  0  0  0  0  0  0  0  0  0
  -19.4336   -2.6989  -26.8257 H   0  0  0  0  0  0  0  0  0  0  0  0
  -20.2570   -3.6134  -25.5186 H   0  0  0  0  0  0  0  0  0  0  0  0
  -20.7056   -2.8124  -29.0907 H   0  0  0  0  0  0  0  0  0  0  0  0
  -19.7047   -4.2224  -29.5385 H   0  0  0  0  0  0  0  0  0  0  0  0
  -22.3940   -5.3665  -26.5336 H   0  0  0  0  0  0  0  0  0  0  0  0
  -20.2667   -3.4346  -31.2572 H   0  0  0  0  0  0  0  0  0  0  0  0
  -21.5464   -2.9459  -32.3455 H   0  0  0  0  0  0  0  0  0  0  0  0
  -22.3005   -2.8401  -26.1535 H   0  0  0  0  0  0  0  0  0  0  0  0
  -22.9804   -2.7010  -27.8103 H   0  0  0  0  0  0  0  0  0  0  0  0
  -25.0267   -3.4573  -27.0091 H   0  0  0  0  0  0  0  0  0  0  0  0
  -19.0228   -8.2252  -35.4899 H   0  0  0  0  0  0  0  0  0  0  0  0
  1  2  2  0  0  0  0
  1  3  1  0  0  0  0
  2  6  1  0  0  0  0
  3  7  2  0  0  0  0
  4  8  1  0  0  0  0
  4 13  2  0  0  0  0
  5  9  2  0  0  0  0
  5 13  1  0  0  0  0
  6 15  2  0  0  0  0
  7 15  1  0  0  0  0
  8 16  2  0  0  0  0
  9 16  1  0  0  0  0
 10 14  2  0  0  0  0
 10 17  1  0  0  0  0
 11 14  1  0  0  0  0
 11 18  2  0  0  0  0
 12 17  2  0  0  0  0
 12 18  1  0  0  0  0
 13 26  1  0  0  0  0
 14 28  1  0  0  0  0
 15 30  1  0  0  0  0
 16 32  1  0  0  0  0
 17 33  1  0  0  0  0
 18 34  1  0  0  0  0
 19 26  1  0  0  0  0
 19 29  1  0  0  0  0
 19 31  2  0  0  0  0
 20 24  1  0  0  0  0
 20 29  1  0  0  0  0
 21 25  1  0  0  0  0
 21 28  1  0  0  0  0
 22 25  1  0  0  0  0
 22 28  1  0  0  0  0
 23 25  1  0  0  0  0
 23 29  1  0  0  0  0
 24 25  1  0  0  0  0
 24 27  1  0  0  0  0
 27 30  1  0  0  0  0
  1 35  1  0  0  0  0
  2 36  1  0  0  0  0
  3 37  1  0  0  0  0
  4 38  1  0  0  0  0
  5 39  1  0  0  0  0
  6 40  1  0  0  0  0
  7 41  1  0  0  0  0
  8 42  1  0  0  0  0
  9 43  1  0  0  0  0
 10 44  1  0  0  0  0
 11 45  1  0  0  0  0
 12 46  1  0  0  0  0
 20 47  1  0  0  0  0
 20 48  1  0  0  0  0
 21 49  1  0  0  0  0
 21 50  1  0  0  0  0
 22 51  1  0  0  0  0
 22 52  1  0  0  0  0
 23 53  1  0  0  0  0
 23 54  1  0  0  0  0
 24 55  1  0  0  0  0
 26 56  1  0  0  0  0
 26 57  1  0  0  0  0
 27 58  1  0  0  0  0
 27 59  1  0  0  0  0
 30 60  1  0  0  0  0
 32 61  1  0  0  0  0
M  END
> <SMILES>
Oc1ccc(cc1)CC(=O)N1CC(CNc2ccccc2)C2(C1)CN(C2)c1cc(cc(c1)F)F

> <FORMATTED_ID>
H3D-006975

> <MOLFORMULA>
C27H27F2N3O2

> <Exact Mass>
463.21

> <XLogP>
4.02

> <TPSA_NOPS>
55.8

> <s_m_source_file>
ligprep_h3d.sdf

> <i_m_source_file_index>
4726

> <i_lp_mmshare_version>
55123

> <i_f3d_flags>
0

> <s_epik_input>
W09IXWMxW2NIXVtjSF1jKFtjSF1bY0hdMSlbQ0gyXUMoPU8pTihbQ0gyXTIpW0NIMl1bQ0BIXShbQ0gyXVtOSF1jM1tjSF1bY0hdW2NIXVtjSF1bY0hdMylDMjRbQ0gyXU4oW0NIMl00KWM1W2NIXWMoRilbY0hdYyhGKVtjSF01

> <s_epik_cmdline>
J2VwaWtfcHl0aG9uJywgJy1waHQnLCAnMC41JywgJy1waCcsICc3LjUnLCAnLXRuJywgJzgnLCAnLW1hJywgJzUwMCcsICctaW1hZScsICc8aW5maWxlLm1hZT4nLCAnLW9tYWUnLCAnPG91dGZpbGUubWFlPic=

> <r_lp_tautomer_probability>
1

> <r_epik_Ionization_Penalty>
0.00483253

> <r_epik_Ionization_Penalty_Charging>
0

> <r_epik_Ionization_Penalty_Neutral>
0.00483253

> <r_epik_State_Penalty>
-0

> <r_epik_Charging_Adjusted_Penalty>
0

> <i_epik_Tot_Q>
0

> <i_epik_Tot_abs_Q>
0

> <s_lp_Force_Field>
S-OPLS

> <r_lp_Energy>
41.7962

> <b_lp_Chiralities_Consistent>
1

> <s_lp_Variant>
ligprep_h3d.sdf:4726-1

> <ROCS_ShapeQuery>
_7L13

> <ROCS_TanimotoCombo>
0.715 

> <ROCS_ShapeTanimoto>
0.649 

> <ROCS_ColorTanimoto>
0.067 

> <ROCS_RefTversky>
0.764 

> <ROCS_RefColorTversky>
0.125 

> <ROCS_RefTverskyCombo>
0.889 

> <ROCS_FitTversky>
0.811 

> <ROCS_FitColorTversky>
0.125 

> <ROCS_FitTverskyCombo>
0.936 

> <ROCS_ColorScore>
-1.125

> <ROCS_Overlap>
1265.065

> <ROCS_Rank>
644                 

$$$$
ligprep_h3d.sdf:1119_795
  -OEChem-08212117123D

 76 80  0     0  0  0  0  0  0999 V2000
  -19.6522   -4.5923  -32.2859 C   0  0  0  0  0  0  0  0  0  0  0  0
  -20.4681   -6.8327  -31.8959 C   0  0  0  0  0  0  0  0  0  0  0  0
  -19.0956   -5.0056  -33.4963 C   0  0  0  0  0  0  0  0  0  0  0  0
  -19.9115   -7.2460  -33.1063 C   0  0  0  0  0  0  0  0  0  0  0  0
  -16.5503   -5.3392  -26.4365 C   0  0  0  0  0  0  0  0  0  0  0  0
  -22.7859   -4.1809  -28.9963 C   0  0  0  0  0  0  0  0  0  0  0  0
  -20.6272   -4.3491  -25.4492 C   0  0  0  0  0  0  0  0  0  0  0  0
  -17.1619   -6.5890  -26.2232 C   0  0  0  0  0  0  0  0  0  0  0  0
  -20.7519   -4.7193  -27.8351 C   0  0  0  0  0  0  0  0  0  0  0  0
  -20.3384   -5.5058  -31.4857 C   0  0  0  0  0  0  0  0  0  0  0  0
  -20.9155   -5.0771  -30.2302 C   0  0  0  0  0  0  0  0  0  0  0  0
  -19.2253   -6.3325  -33.9065 C   0  0  0  0  0  0  0  0  0  0  0  0
  -22.2192   -4.5976  -30.2034 C   0  0  0  0  0  0  0  0  0  0  0  0
  -20.1816   -5.1385  -29.0491 C   0  0  0  0  0  0  0  0  0  0  0  0
  -22.0750   -4.2315  -27.8004 C   0  0  0  0  0  0  0  0  0  0  0  0
  -20.0358   -4.7703  -26.6315 C   0  0  0  0  0  0  0  0  0  0  0  0
  -21.9262   -3.8875  -25.5146 C   0  0  0  0  0  0  0  0  0  0  0  0
  -17.5984   -4.4714  -26.6230 C   0  0  0  0  0  0  0  0  0  0  0  0
  -22.6047   -3.4329  -24.3131 C   0  0  0  0  0  0  0  0  0  0  0  0
  -25.5575   -5.6539  -23.7914 C   0  0  0  0  0  0  0  0  0  0  0  0
  -19.0144   -8.1522  -37.1533 C   0  0  0  0  0  0  0  0  0  0  0  0
  -20.3945   -6.2201  -36.7525 C   0  0  0  0  0  0  0  0  0  0  0  0
  -20.0851   -8.6850  -38.1013 C   0  0  0  0  0  0  0  0  0  0  0  0
  -21.4331   -6.7990  -37.7090 C   0  0  0  0  0  0  0  0  0  0  0  0
  -23.0514   -4.5091  -31.4433 C   0  0  0  0  0  0  0  0  0  0  0  0
  -18.7789   -5.6679  -29.1558 C   0  0  0  0  0  0  0  0  0  0  0  0
  -17.6068   -3.0195  -26.8893 C   0  0  0  0  0  0  0  0  0  0  0  0
  -25.2550   -7.0055  -23.2345 C   0  0  0  0  0  0  0  0  0  0  0  0
  -18.6260   -6.7775  -35.2092 C   0  0  0  0  0  0  0  0  0  0  0  0
  -24.7192   -2.4741  -23.3640 C   0  0  0  0  0  0  0  0  0  0  0  0
  -25.9842   -3.2889  -23.1533 C   0  0  0  0  0  0  0  0  0  0  0  0
  -18.4952   -6.5253  -26.2695 N   0  0  0  0  0  0  0  0  0  0  0  0
  -22.6515   -3.8220  -26.6546 N   0  0  0  0  0  0  0  0  0  0  0  0
  -18.7301   -5.2248  -26.5140 N   0  0  0  0  0  0  0  0  0  0  0  0
  -19.6356   -7.3092  -36.1223 N   0  0  0  0  0  0  0  0  0  0  0  0
  -23.9215   -2.9787  -24.4585 N   0  0  0  0  0  0  0  0  0  0  0  0
  -25.6945   -4.6608  -22.8345 N   0  0  0  0  0  0  0  0  0  0  0  0
  -22.0178   -3.4350  -23.2157 O   0  0  0  0  0  0  0  0  0  0  0  0
  -25.6603   -5.5093  -25.0039 O   0  0  0  0  0  0  0  0  0  0  0  0
  -20.7991   -7.6045  -38.7031 O   0  0  0  0  0  0  0  0  0  0  0  0
  -19.5420   -3.5547  -31.9796 H   0  0  0  0  0  0  0  0  0  0  0  0
  -21.0006   -7.5565  -31.2836 H   0  0  0  0  0  0  0  0  0  0  0  0
  -18.5617   -4.2873  -34.1128 H   0  0  0  0  0  0  0  0  0  0  0  0
  -20.0178   -8.2817  -33.4185 H   0  0  0  0  0  0  0  0  0  0  0  0
  -15.4964   -5.1027  -26.4520 H   0  0  0  0  0  0  0  0  0  0  0  0
  -23.8092   -3.8072  -28.9902 H   0  0  0  0  0  0  0  0  0  0  0  0
  -20.0945   -4.3781  -24.5027 H   0  0  0  0  0  0  0  0  0  0  0  0
  -16.6914   -7.5436  -26.0358 H   0  0  0  0  0  0  0  0  0  0  0  0
  -18.4954   -8.9990  -36.6900 H   0  0  0  0  0  0  0  0  0  0  0  0
  -18.2776   -7.5727  -37.7247 H   0  0  0  0  0  0  0  0  0  0  0  0
  -19.7182   -5.5560  -37.3065 H   0  0  0  0  0  0  0  0  0  0  0  0
  -20.9078   -5.6233  -35.9898 H   0  0  0  0  0  0  0  0  0  0  0  0
  -19.6164   -9.2631  -38.9042 H   0  0  0  0  0  0  0  0  0  0  0  0
  -20.7901   -9.3466  -37.5836 H   0  0  0  0  0  0  0  0  0  0  0  0
  -22.1846   -7.3966  -37.1784 H   0  0  0  0  0  0  0  0  0  0  0  0
  -21.9589   -5.9884  -38.2237 H   0  0  0  0  0  0  0  0  0  0  0  0
  -22.9133   -3.5336  -31.9218 H   0  0  0  0  0  0  0  0  0  0  0  0
  -22.7776   -5.2934  -32.1584 H   0  0  0  0  0  0  0  0  0  0  0  0
  -24.1153   -4.6408  -31.2138 H   0  0  0  0  0  0  0  0  0  0  0  0
  -18.7806   -6.7517  -29.0159 H   0  0  0  0  0  0  0  0  0  0  0  0
  -18.3508   -5.4344  -30.1346 H   0  0  0  0  0  0  0  0  0  0  0  0
  -18.1345   -5.2108  -28.3995 H   0  0  0  0  0  0  0  0  0  0  0  0
  -17.5825   -2.8141  -27.9720 H   0  0  0  0  0  0  0  0  0  0  0  0
  -18.5035   -2.5280  -26.4749 H   0  0  0  0  0  0  0  0  0  0  0  0
  -16.7413   -2.5100  -26.4320 H   0  0  0  0  0  0  0  0  0  0  0  0
  -26.1670   -7.5837  -23.0154 H   0  0  0  0  0  0  0  0  0  0  0  0
  -24.6763   -7.6289  -23.9348 H   0  0  0  0  0  0  0  0  0  0  0  0
  -24.6767   -7.0102  -22.2968 H   0  0  0  0  0  0  0  0  0  0  0  0
  -18.1256   -5.9413  -35.7096 H   0  0  0  0  0  0  0  0  0  0  0  0
  -17.8745   -7.5579  -35.0498 H   0  0  0  0  0  0  0  0  0  0  0  0
  -24.0877   -2.4784  -22.4699 H   0  0  0  0  0  0  0  0  0  0  0  0
  -24.9754   -1.4376  -23.6046 H   0  0  0  0  0  0  0  0  0  0  0  0
  -26.5632   -2.8807  -22.3192 H   0  0  0  0  0  0  0  0  0  0  0  0
  -26.6147   -3.2852  -24.0482 H   0  0  0  0  0  0  0  0  0  0  0  0
  -24.3320   -2.9387  -25.3856 H   0  0  0  0  0  0  0  0  0  0  0  0
  -25.5841   -4.9160  -21.8542 H   0  0  0  0  0  0  0  0  0  0  0  0
  1  3  1  0  0  0  0
  1 10  2  0  0  0  0
  2  4  2  0  0  0  0
  2 10  1  0  0  0  0
  3 12  2  0  0  0  0
  4 12  1  0  0  0  0
  5  8  1  0  0  0  0
  5 18  2  0  0  0  0
  6 13  2  0  0  0  0
  6 15  1  0  0  0  0
  7 16  1  0  0  0  0
  7 17  2  0  0  0  0
  8 32  2  0  0  0  0
  9 14  1  0  0  0  0
  9 15  1  0  0  0  0
  9 16  2  0  0  0  0
 10 11  1  0  0  0  0
 11 13  1  0  0  0  0
 11 14  2  0  0  0  0
 12 29  1  0  0  0  0
 13 25  1  0  0  0  0
 14 26  1  0  0  0  0
 15 33  2  0  0  0  0
 16 34  1  0  0  0  0
 17 19  1  0  0  0  0
 17 33  1  0  0  0  0
 18 27  1  0  0  0  0
 18 34  1  0  0  0  0
 19 36  1  0  0  0  0
 19 38  2  0  0  0  0
 20 28  1  0  0  0  0
 20 37  1  0  0  0  0
 20 39  2  0  0  0  0
 21 23  1  0  0  0  0
 21 35  1  0  0  0  0
 22 24  1  0  0  0  0
 22 35  1  0  0  0  0
 23 40  1  0  0  0  0
 24 40  1  0  0  0  0
 29 35  1  0  0  0  0
 30 31  1  0  0  0  0
 30 36  1  0  0  0  0
 31 37  1  0  0  0  0
 32 34  1  0  0  0  0
  1 41  1  0  0  0  0
  2 42  1  0  0  0  0
  3 43  1  0  0  0  0
  4 44  1  0  0  0  0
  5 45  1  0  0  0  0
  6 46  1  0  0  0  0
  7 47  1  0  0  0  0
  8 48  1  0  0  0  0
 21 49  1  0  0  0  0
 21 50  1  0  0  0  0
 22 51  1  0  0  0  0
 22 52  1  0  0  0  0
 23 53  1  0  0  0  0
 23 54  1  0  0  0  0
 24 55  1  0  0  0  0
 24 56  1  0  0  0  0
 25 57  1  0  0  0  0
 25 58  1  0  0  0  0
 25 59  1  0  0  0  0
 26 60  1  0  0  0  0
 26 61  1  0  0  0  0
 26 62  1  0  0  0  0
 27 63  1  0  0  0  0
 27 64  1  0  0  0  0
 27 65  1  0  0  0  0
 28 66  1  0  0  0  0
 28 67  1  0  0  0  0
 28 68  1  0  0  0  0
 29 69  1  0  0  0  0
 29 70  1  0  0  0  0
 30 71  1  0  0  0  0
 30 72  1  0  0  0  0
 31 73  1  0  0  0  0
 31 74  1  0  0  0  0
 36 75  1  0  0  0  0
 37 76  1  0  0  0  0
M  END
> <SMILES>
CC(=O)NCCNC(=O)c1cc(c2c(c(c(cc2n1)C)-c1ccc(cc1)CN1CCOCC1)C)-n1nccc1C

> <FORMATTED_ID>
H3D-007193

> <MOLFORMULA>
C31H36N6O3

> <Exact Mass>
540.28

> <XLogP>
3.42

> <TPSA_NOPS>
101.4

> <s_m_source_file>
ligprep_h3d.sdf

> <i_m_source_file_index>
1119

> <i_lp_mmshare_version>
55123

> <i_f3d_flags>
0

> <s_epik_input>
W0NIM11jMVtjSF1bY0hdbm4xLWMyW2NIXWMoQyg9TylbTkhdW0NIMl1bQ0gyXVtOSF1DKD1PKVtDSDNdKW5jKGMyMylbY0hdYyhbQ0gzXSljKGMzW0NIM10pLWM0W2NIXVtjSF1jKFtjSF1bY0hdNClbQ0gyXU41W0NIMl1bQ0gyXU9bQ0gyXVtDSDJdNQ==

> <s_epik_cmdline>
J2VwaWtfcHl0aG9uJywgJy1waHQnLCAnMC41JywgJy1waCcsICc3LjUnLCAnLXRuJywgJzgnLCAnLW1hJywgJzUwMCcsICctaW1hZScsICc8aW5maWxlLm1hZT4nLCAnLW9tYWUnLCAnPG91dGZpbGUubWFlPic=

> <r_lp_tautomer_probability>
1

> <r_epik_Ionization_Penalty>
0.105562

> <r_epik_Ionization_Penalty_Charging>
0

> <r_epik_Ionization_Penalty_Neutral>
0.105562

> <r_epik_State_Penalty>
0.095414

> <r_epik_Charging_Adjusted_Penalty>
0.095414

> <i_epik_Tot_Q>
0

> <i_epik_Tot_abs_Q>
0

> <s_lp_Force_Field>
S-OPLS

> <r_lp_Energy>
54.0356

> <b_lp_Chiralities_Consistent>
1

> <s_lp_Variant>
ligprep_h3d.sdf:1119-1

> <ROCS_ShapeQuery>
_7L13

> <ROCS_TanimotoCombo>
0.675 

> <ROCS_ShapeTanimoto>
0.572 

> <ROCS_ColorTanimoto>
0.102 

> <ROCS_RefTversky>
0.764 

> <ROCS_RefColorTversky>
0.222 

> <ROCS_RefTverskyCombo>
0.987 

> <ROCS_FitTversky>
0.695 

> <ROCS_FitColorTversky>
0.160 

> <ROCS_FitTverskyCombo>
0.855 

> <ROCS_ColorScore>
-2.046

> <ROCS_Overlap>
1276.105

> <ROCS_Rank>
645                 

$$$$
ligprep_h3d.sdf:3191_206
  -OEChem-08212117123D

 58 62  0     0  0  0  0  0  0999 V2000
  -18.3483   -8.3856  -36.1229 C   0  0  0  0  0  0  0  0  0  0  0  0
  -19.0258   -8.8252  -34.9857 C   0  0  0  0  0  0  0  0  0  0  0  0
  -18.3792   -7.0363  -36.4752 C   0  0  0  0  0  0  0  0  0  0  0  0
  -23.2542   -2.4311  -30.8251 C   0  0  0  0  0  0  0  0  0  0  0  0
  -22.2276   -3.4894  -23.4960 C   0  0  0  0  0  0  0  0  0  0  0  0
  -23.2431   -5.2658  -24.7805 C   0  0  0  0  0  0  0  0  0  0  0  0
  -22.4420   -2.7746  -29.7444 C   0  0  0  0  0  0  0  0  0  0  0  0
  -19.7343   -7.9156  -34.2008 C   0  0  0  0  0  0  0  0  0  0  0  0
  -19.0878   -6.1266  -35.6903 C   0  0  0  0  0  0  0  0  0  0  0  0
  -23.4864   -3.3547  -31.8443 C   0  0  0  0  0  0  0  0  0  0  0  0
  -23.4612   -3.2089  -22.9085 C   0  0  0  0  0  0  0  0  0  0  0  0
  -24.4767   -4.9854  -24.1930 C   0  0  0  0  0  0  0  0  0  0  0  0
  -22.0942   -4.9653  -30.7020 C   0  0  0  0  0  0  0  0  0  0  0  0
  -19.6508   -5.1893  -24.4711 C   0  0  0  0  0  0  0  0  0  0  0  0
  -22.1185   -4.5178  -24.4321 C   0  0  0  0  0  0  0  0  0  0  0  0
  -21.8620   -4.0416  -29.6828 C   0  0  0  0  0  0  0  0  0  0  0  0
  -19.7654   -6.5662  -34.5531 C   0  0  0  0  0  0  0  0  0  0  0  0
  -24.5858   -3.9570  -23.2570 C   0  0  0  0  0  0  0  0  0  0  0  0
  -22.9064   -4.6218  -31.7828 C   0  0  0  0  0  0  0  0  0  0  0  0
  -20.8425   -4.8080  -25.0393 C   0  0  0  0  0  0  0  0  0  0  0  0
  -19.2694   -5.0882  -26.5710 C   0  0  0  0  0  0  0  0  0  0  0  0
  -18.7881   -5.0977  -27.8983 C   0  0  0  0  0  0  0  0  0  0  0  0
  -19.6082   -4.7700  -28.9041 C   0  0  0  0  0  0  0  0  0  0  0  0
  -21.0150   -4.4012  -28.5527 C   0  0  0  0  0  0  0  0  0  0  0  0
  -26.8699   -2.4021  -23.6017 C   0  0  0  0  0  0  0  0  0  0  0  0
  -20.5280   -5.5866  -33.7088 C   0  0  0  0  0  0  0  0  0  0  0  0
  -18.6805   -5.3618  -25.4245 N   0  0  0  0  0  0  0  0  0  0  0  0
  -21.4959   -4.3977  -27.3426 N   0  0  0  0  0  0  0  0  0  0  0  0
  -20.5941   -4.7431  -26.3851 N   0  0  0  0  0  0  0  0  0  0  0  0
  -21.9234   -5.4496  -34.1501 N   0  0  0  0  0  0  0  0  0  0  0  0
  -26.9389   -4.8152  -22.5785 O   0  0  0  0  0  0  0  0  0  0  0  0
  -25.9046   -2.9467  -21.2426 O   0  0  0  0  0  0  0  0  0  0  0  0
  -23.0189   -7.1212  -32.5246 O   0  0  0  0  0  0  0  0  0  0  0  0
  -24.4587   -5.4257  -33.6978 O   0  0  0  0  0  0  0  0  0  0  0  0
  -26.1296   -3.6061  -22.5218 S   0  0  0  0  0  0  0  0  0  0  0  0
  -23.1975   -5.7772  -33.0590 S   0  0  0  0  0  0  0  0  0  0  0  0
  -17.7955   -9.0938  -36.7333 H   0  0  0  0  0  0  0  0  0  0  0  0
  -19.0009   -9.8756  -34.7106 H   0  0  0  0  0  0  0  0  0  0  0  0
  -17.8510   -6.6935  -37.3599 H   0  0  0  0  0  0  0  0  0  0  0  0
  -23.7055   -1.4441  -30.8734 H   0  0  0  0  0  0  0  0  0  0  0  0
  -21.3601   -2.8974  -23.2140 H   0  0  0  0  0  0  0  0  0  0  0  0
  -23.1742   -6.0708  -25.5084 H   0  0  0  0  0  0  0  0  0  0  0  0
  -22.2683   -2.0467  -28.9562 H   0  0  0  0  0  0  0  0  0  0  0  0
  -20.2594   -8.2672  -33.3165 H   0  0  0  0  0  0  0  0  0  0  0  0
  -19.1065   -5.0773  -35.9725 H   0  0  0  0  0  0  0  0  0  0  0  0
  -24.1202   -3.0769  -32.6821 H   0  0  0  0  0  0  0  0  0  0  0  0
  -23.5351   -2.4056  -22.1804 H   0  0  0  0  0  0  0  0  0  0  0  0
  -25.3466   -5.5743  -24.4717 H   0  0  0  0  0  0  0  0  0  0  0  0
  -21.6420   -5.9535  -30.6546 H   0  0  0  0  0  0  0  0  0  0  0  0
  -19.4376   -5.3501  -23.4237 H   0  0  0  0  0  0  0  0  0  0  0  0
  -17.7562   -5.3692  -28.0904 H   0  0  0  0  0  0  0  0  0  0  0  0
  -19.2837   -4.7616  -29.9371 H   0  0  0  0  0  0  0  0  0  0  0  0
  -27.8481   -2.1340  -23.1994 H   0  0  0  0  0  0  0  0  0  0  0  0
  -26.2191   -1.5273  -23.6397 H   0  0  0  0  0  0  0  0  0  0  0  0
  -26.9727   -2.8459  -24.5931 H   0  0  0  0  0  0  0  0  0  0  0  0
  -20.5355   -5.9043  -32.6604 H   0  0  0  0  0  0  0  0  0  0  0  0
  -20.0666   -4.5942  -33.7446 H   0  0  0  0  0  0  0  0  0  0  0  0
  -22.0897   -4.7910  -34.9208 H   0  0  0  0  0  0  0  0  0  0  0  0
  1  2  2  0  0  0  0
  1  3  1  0  0  0  0
  2  8  1  0  0  0  0
  3  9  2  0  0  0  0
  4  7  1  0  0  0  0
  4 10  2  0  0  0  0
  5 11  1  0  0  0  0
  5 15  2  0  0  0  0
  6 12  2  0  0  0  0
  6 15  1  0  0  0  0
  7 16  2  0  0  0  0
  8 17  2  0  0  0  0
  9 17  1  0  0  0  0
 10 19  1  0  0  0  0
 11 18  2  0  0  0  0
 12 18  1  0  0  0  0
 13 16  1  0  0  0  0
 13 19  2  0  0  0  0
 14 20  2  0  0  0  0
 14 27  1  0  0  0  0
 15 20  1  0  0  0  0
 16 24  1  0  0  0  0
 17 26  1  0  0  0  0
 18 35  1  0  0  0  0
 19 36  1  0  0  0  0
 20 29  1  0  0  0  0
 21 22  1  0  0  0  0
 21 27  2  0  0  0  0
 21 29  1  0  0  0  0
 22 23  2  0  0  0  0
 23 24  1  0  0  0  0
 24 28  2  0  0  0  0
 25 35  1  0  0  0  0
 26 30  1  0  0  0  0
 28 29  1  0  0  0  0
 30 36  1  0  0  0  0
 31 35  2  0  0  0  0
 32 35  2  0  0  0  0
 33 36  2  0  0  0  0
 34 36  2  0  0  0  0
  1 37  1  0  0  0  0
  2 38  1  0  0  0  0
  3 39  1  0  0  0  0
  4 40  1  0  0  0  0
  5 41  1  0  0  0  0
  6 42  1  0  0  0  0
  7 43  1  0  0  0  0
  8 44  1  0  0  0  0
  9 45  1  0  0  0  0
 10 46  1  0  0  0  0
 11 47  1  0  0  0  0
 12 48  1  0  0  0  0
 13 49  1  0  0  0  0
 14 50  1  0  0  0  0
 22 51  1  0  0  0  0
 23 52  1  0  0  0  0
 25 53  1  0  0  0  0
 25 54  1  0  0  0  0
 25 55  1  0  0  0  0
 26 56  1  0  0  0  0
 26 57  1  0  0  0  0
 30 58  1  0  0  0  0
M  END
> <SMILES>
CS(=O)(=O)c1ccc(cc1)-c1cnc2ccc(nn12)-c1cccc(c1)S(=O)(=O)NCc1ccccc1

> <FORMATTED_ID>
H3D-000370

> <MOLFORMULA>
C26H22N4O4S2

> <Exact Mass>
518.11

> <XLogP>
4.29

> <TPSA_NOPS>
127.3

> <s_m_source_file>
ligprep_h3d.sdf

> <i_m_source_file_index>
3191

> <i_lp_mmshare_version>
55123

> <i_f3d_flags>
0

> <s_epik_input>
W0NIM11TKD1PKSg9TyljMVtjSF1bY0hdYyhbY0hdW2NIXTEpLWMoW2NIXW4yKW4oYzIzKW5jKFtjSF1bY0hdMyktYzRbY0hdW2NIXVtjSF1jKFtjSF00KVMoPU8pKD1PKVtOSF1bQ0gyXWM1W2NIXVtjSF1bY0hdW2NIXVtjSF01

> <s_epik_cmdline>
J2VwaWtfcHl0aG9uJywgJy1waHQnLCAnMC41JywgJy1waCcsICc3LjUnLCAnLXRuJywgJzgnLCAnLW1hJywgJzUwMCcsICctaW1hZScsICc8aW5maWxlLm1hZT4nLCAnLW9tYWUnLCAnPG91dGZpbGUubWFlPic=

> <r_lp_tautomer_probability>
1

> <r_epik_Ionization_Penalty>
0.000423871

> <r_epik_Ionization_Penalty_Charging>
0

> <r_epik_Ionization_Penalty_Neutral>
0.000423871

> <r_epik_State_Penalty>
-0

> <r_epik_Charging_Adjusted_Penalty>
0

> <i_epik_Tot_Q>
0

> <i_epik_Tot_abs_Q>
0

> <s_lp_Force_Field>
S-OPLS

> <r_lp_Energy>
30.2423

> <b_lp_Chiralities_Consistent>
1

> <s_lp_Variant>
ligprep_h3d.sdf:3191-1

> <ROCS_ShapeQuery>
_7L13

> <ROCS_TanimotoCombo>
0.736 

> <ROCS_ShapeTanimoto>
0.628 

> <ROCS_ColorTanimoto>
0.109 

> <ROCS_RefTversky>
0.764 

> <ROCS_RefColorTversky>
0.225 

> <ROCS_RefTverskyCombo>
0.990 

> <ROCS_FitTversky>
0.778 

> <ROCS_FitColorTversky>
0.174 

> <ROCS_FitTverskyCombo>
0.952 

> <ROCS_ColorScore>
-2.063

> <ROCS_Overlap>
1267.771

> <ROCS_Rank>
646                 

$$$$
ligprep_h3d.sdf:5212_1551
  -OEChem-08212117123D

 58 62  0     0  0  0  0  0  0999 V2000
  -25.8090   -4.6709  -24.1050 C   0  0  0  0  0  0  0  0  0  0  0  0
  -25.0065   -3.8232  -23.3414 C   0  0  0  0  0  0  0  0  0  0  0  0
  -25.2484   -5.4125  -25.1450 C   0  0  0  0  0  0  0  0  0  0  0  0
  -23.6434   -3.7171  -23.6178 C   0  0  0  0  0  0  0  0  0  0  0  0
  -23.8853   -5.3063  -25.4214 C   0  0  0  0  0  0  0  0  0  0  0  0
  -19.5148   -8.1862  -34.1299 C   0  0  0  0  0  0  0  0  0  0  0  0
  -20.6328   -4.9515  -29.0996 C   0  0  0  0  0  0  0  0  0  0  0  0
  -22.4317   -3.0344  -28.0387 C   0  0  0  0  0  0  0  0  0  0  0  0
  -18.9703   -8.9346  -35.1534 C   0  0  0  0  0  0  0  0  0  0  0  0
  -21.5812   -4.3461  -29.9070 C   0  0  0  0  0  0  0  0  0  0  0  0
  -23.0828   -4.4586  -24.6578 C   0  0  0  0  0  0  0  0  0  0  0  0
  -22.4588   -3.4075  -29.3682 C   0  0  0  0  0  0  0  0  0  0  0  0
  -20.5837   -4.5919  -27.7488 C   0  0  0  0  0  0  0  0  0  0  0  0
  -21.4758   -3.6407  -27.2231 C   0  0  0  0  0  0  0  0  0  0  0  0
  -20.0951   -6.9923  -34.5067 C   0  0  0  0  0  0  0  0  0  0  0  0
  -19.5806   -7.3725  -36.6879 C   0  0  0  0  0  0  0  0  0  0  0  0
  -23.0569   -3.5438  -31.5862 C   0  0  0  0  0  0  0  0  0  0  0  0
  -22.3370   -5.9606  -31.7098 C   0  0  0  0  0  0  0  0  0  0  0  0
  -20.6815   -4.0846  -32.2458 C   0  0  0  0  0  0  0  0  0  0  0  0
  -21.2222   -6.8267  -32.2995 C   0  0  0  0  0  0  0  0  0  0  0  0
  -20.6825   -4.7476  -33.6243 C   0  0  0  0  0  0  0  0  0  0  0  0
  -21.8717   -4.5320  -31.3812 C   0  0  0  0  0  0  0  0  0  0  0  0
  -19.6177   -6.9213  -38.1085 C   0  0  0  0  0  0  0  0  0  0  0  0
  -18.3896   -4.5298  -26.8335 C   0  0  0  0  0  0  0  0  0  0  0  0
  -21.6166   -4.3447  -24.9558 C   0  0  0  0  0  0  0  0  0  0  0  0
  -18.9856   -8.5567  -36.4485 N   0  0  0  0  0  0  0  0  0  0  0  0
  -20.1458   -6.5528  -35.7813 N   0  0  0  0  0  0  0  0  0  0  0  0
  -23.3193   -2.9416  -30.3529 N   0  0  0  0  0  0  0  0  0  0  0  0
  -20.6580   -6.2072  -33.5011 N   0  0  0  0  0  0  0  0  0  0  0  0
  -23.6413   -3.3351  -32.6393 O   0  0  0  0  0  0  0  0  0  0  0  0
  -19.6544   -5.1783  -26.9402 O   0  0  0  0  0  0  0  0  0  0  0  0
  -21.4143   -3.2996  -25.9039 O   0  0  0  0  0  0  0  0  0  0  0  0
  -26.8700   -4.7544  -23.8888 H   0  0  0  0  0  0  0  0  0  0  0  0
  -25.4426   -3.2466  -22.5309 H   0  0  0  0  0  0  0  0  0  0  0  0
  -25.8726   -6.0733  -25.7390 H   0  0  0  0  0  0  0  0  0  0  0  0
  -23.0258   -3.0539  -23.0177 H   0  0  0  0  0  0  0  0  0  0  0  0
  -23.4573   -5.8878  -26.2337 H   0  0  0  0  0  0  0  0  0  0  0  0
  -19.4821   -8.5266  -33.1026 H   0  0  0  0  0  0  0  0  0  0  0  0
  -19.9447   -5.6880  -29.5005 H   0  0  0  0  0  0  0  0  0  0  0  0
  -23.1239   -2.2994  -27.6426 H   0  0  0  0  0  0  0  0  0  0  0  0
  -18.4930   -9.8880  -34.9542 H   0  0  0  0  0  0  0  0  0  0  0  0
  -23.1825   -5.9420  -32.4132 H   0  0  0  0  0  0  0  0  0  0  0  0
  -22.7161   -6.4661  -30.8088 H   0  0  0  0  0  0  0  0  0  0  0  0
  -19.7280   -4.2937  -31.7478 H   0  0  0  0  0  0  0  0  0  0  0  0
  -20.7040   -2.9986  -32.3963 H   0  0  0  0  0  0  0  0  0  0  0  0
  -20.4485   -6.9788  -31.5357 H   0  0  0  0  0  0  0  0  0  0  0  0
  -21.6084   -7.8189  -32.5612 H   0  0  0  0  0  0  0  0  0  0  0  0
  -21.5832   -4.4371  -34.1674 H   0  0  0  0  0  0  0  0  0  0  0  0
  -19.8164   -4.4098  -34.2054 H   0  0  0  0  0  0  0  0  0  0  0  0
  -20.5282   -7.2843  -38.6012 H   0  0  0  0  0  0  0  0  0  0  0  0
  -19.5970   -5.8260  -38.1798 H   0  0  0  0  0  0  0  0  0  0  0  0
  -18.7484   -7.2921  -38.6675 H   0  0  0  0  0  0  0  0  0  0  0  0
  -17.7433   -5.0987  -26.1606 H   0  0  0  0  0  0  0  0  0  0  0  0
  -18.5301   -3.5159  -26.4505 H   0  0  0  0  0  0  0  0  0  0  0  0
  -17.9296   -4.4827  -27.8234 H   0  0  0  0  0  0  0  0  0  0  0  0
  -21.0486   -4.1175  -24.0472 H   0  0  0  0  0  0  0  0  0  0  0  0
  -21.2307   -5.2833  -25.3679 H   0  0  0  0  0  0  0  0  0  0  0  0
  -24.0437   -2.2532  -30.1859 H   0  0  0  0  0  0  0  0  0  0  0  0
  1  2  2  0  0  0  0
  1  3  1  0  0  0  0
  2  4  1  0  0  0  0
  3  5  2  0  0  0  0
  4 11  2  0  0  0  0
  5 11  1  0  0  0  0
  6  9  1  0  0  0  0
  6 15  2  0  0  0  0
  7 10  1  0  0  0  0
  7 13  2  0  0  0  0
  8 12  1  0  0  0  0
  8 14  2  0  0  0  0
  9 26  2  0  0  0  0
 10 12  2  0  0  0  0
 10 22  1  0  0  0  0
 11 25  1  0  0  0  0
 12 28  1  0  0  0  0
 13 14  1  0  0  0  0
 13 31  1  0  0  0  0
 14 32  1  0  0  0  0
 15 27  1  0  0  0  0
 15 29  1  0  0  0  0
 16 23  1  0  0  0  0
 16 26  1  0  0  0  0
 16 27  2  0  0  0  0
 17 22  1  0  0  0  0
 17 28  1  0  0  0  0
 17 30  2  0  0  0  0
 18 20  1  0  0  0  0
 18 22  1  0  0  0  0
 19 21  1  0  0  0  0
 19 22  1  0  0  0  0
 20 29  1  0  0  0  0
 21 29  1  0  0  0  0
 24 31  1  0  0  0  0
 25 32  1  0  0  0  0
  1 33  1  0  0  0  0
  2 34  1  0  0  0  0
  3 35  1  0  0  0  0
  4 36  1  0  0  0  0
  5 37  1  0  0  0  0
  6 38  1  0  0  0  0
  7 39  1  0  0  0  0
  8 40  1  0  0  0  0
  9 41  1  0  0  0  0
 18 42  1  0  0  0  0
 18 43  1  0  0  0  0
 19 44  1  0  0  0  0
 19 45  1  0  0  0  0
 20 46  1  0  0  0  0
 20 47  1  0  0  0  0
 21 48  1  0  0  0  0
 21 49  1  0  0  0  0
 23 50  1  0  0  0  0
 23 51  1  0  0  0  0
 23 52  1  0  0  0  0
 24 53  1  0  0  0  0
 24 54  1  0  0  0  0
 24 55  1  0  0  0  0
 25 56  1  0  0  0  0
 25 57  1  0  0  0  0
 28 58  1  0  0  0  0
M  END
> <SMILES>
COc1cc2c(cc1OCc1ccccc1)NC(=O)C12CCN(CC1)c1ccnc(n1)C

> <FORMATTED_ID>
H3D-014029

> <MOLFORMULA>
C25H26N4O3

> <Exact Mass>
430.2

> <XLogP>
4.16

> <TPSA_NOPS>
76.6

> <s_m_source_file>
ligprep_h3d.sdf

> <i_m_source_file_index>
5212

> <i_lp_mmshare_version>
55123

> <i_f3d_flags>
0

> <s_epik_input>
W2NIXTFbY0hdW2NIXVtjSF1bY0hdYzFbQ0gyXU9jKGMoW2NIXTIpT1tDSDNdKVtjSF1jKFtOSF1DMz1PKWMyQzM0W0NIMl1bQ0gyXU4oW0NIMl1bQ0gyXTQpYzVbY0hdW2NIXW5jKG41KVtDSDNd

> <s_epik_cmdline>
J2VwaWtfcHl0aG9uJywgJy1waHQnLCAnMC41JywgJy1waCcsICc3LjUnLCAnLXRuJywgJzgnLCAnLW1hJywgJzUwMCcsICctaW1hZScsICc8aW5maWxlLm1hZT4nLCAnLW9tYWUnLCAnPG91dGZpbGUubWFlPic=

> <r_lp_tautomer_probability>
1

> <r_epik_Ionization_Penalty>
0.104824

> <r_epik_Ionization_Penalty_Charging>
0

> <r_epik_Ionization_Penalty_Neutral>
0.104824

> <r_epik_State_Penalty>
0.0944636

> <r_epik_Charging_Adjusted_Penalty>
0.0944636

> <i_epik_Tot_Q>
0

> <i_epik_Tot_abs_Q>
0

> <s_lp_Force_Field>
S-OPLS

> <r_lp_Energy>
68.0874

> <b_lp_Chiralities_Consistent>
1

> <s_lp_Variant>
ligprep_h3d.sdf:5212-1

> <ROCS_ShapeQuery>
_7L13

> <ROCS_TanimotoCombo>
0.760 

> <ROCS_ShapeTanimoto>
0.670 

> <ROCS_ColorTanimoto>
0.090 

> <ROCS_RefTversky>
0.764 

> <ROCS_RefColorTversky>
0.182 

> <ROCS_RefTverskyCombo>
0.946 

> <ROCS_FitTversky>
0.845 

> <ROCS_FitColorTversky>
0.151 

> <ROCS_FitTverskyCombo>
0.996 

> <ROCS_ColorScore>
-1.654

> <ROCS_Overlap>
1262.123

> <ROCS_Rank>
647                 

$$$$
ligprep_h3d.sdf:5082_1754
  -OEChem-08212117123D

 66 70  0     0  0  0  0  0  0999 V2000
  -19.3272   -5.5499  -34.8351 C   0  0  0  0  0  0  0  0  0  0  0  0
  -20.2945   -6.4984  -34.5030 C   0  0  0  0  0  0  0  0  0  0  0  0
  -19.2753   -4.3368  -34.1485 C   0  0  0  0  0  0  0  0  0  0  0  0
  -21.2100   -6.2337  -33.4844 C   0  0  0  0  0  0  0  0  0  0  0  0
  -20.1907   -4.0721  -33.1300 C   0  0  0  0  0  0  0  0  0  0  0  0
  -18.3942   -3.8736  -26.0332 C   0  0  0  0  0  0  0  0  0  0  0  0
  -18.7057   -6.1893  -25.4188 C   0  0  0  0  0  0  0  0  0  0  0  0
  -17.0199   -4.0057  -25.8345 C   0  0  0  0  0  0  0  0  0  0  0  0
  -17.3314   -6.3215  -25.2202 C   0  0  0  0  0  0  0  0  0  0  0  0
  -23.6895   -3.9580  -27.7765 C   0  0  0  0  0  0  0  0  0  0  0  0
  -20.9903   -4.3532  -28.4735 C   0  0  0  0  0  0  0  0  0  0  0  0
  -22.7448   -4.3044  -26.8179 C   0  0  0  0  0  0  0  0  0  0  0  0
  -21.1581   -5.0206  -32.7979 C   0  0  0  0  0  0  0  0  0  0  0  0
  -19.2371   -4.9654  -25.8252 C   0  0  0  0  0  0  0  0  0  0  0  0
  -21.3945   -4.4866  -27.1509 C   0  0  0  0  0  0  0  0  0  0  0  0
  -16.4885   -5.2297  -25.4280 C   0  0  0  0  0  0  0  0  0  0  0  0
  -23.2762   -3.8118  -29.0991 C   0  0  0  0  0  0  0  0  0  0  0  0
  -21.9356   -4.0125  -29.4460 C   0  0  0  0  0  0  0  0  0  0  0  0
  -23.1143   -3.1352  -24.6357 C   0  0  0  0  0  0  0  0  0  0  0  0
  -24.1337   -5.4180  -25.0039 C   0  0  0  0  0  0  0  0  0  0  0  0
  -21.5839   -5.1759  -24.9655 C   0  0  0  0  0  0  0  0  0  0  0  0
  -23.4011   -3.2555  -23.1424 C   0  0  0  0  0  0  0  0  0  0  0  0
  -24.3684   -5.5423  -23.5041 C   0  0  0  0  0  0  0  0  0  0  0  0
  -22.9436   -4.5005  -25.3347 C   0  0  0  0  0  0  0  0  0  0  0  0
  -24.9635   -4.2350  -21.4670 C   0  0  0  0  0  0  0  0  0  0  0  0
  -14.3439   -4.2024  -25.4647 C   0  0  0  0  0  0  0  0  0  0  0  0
  -24.3879   -2.0823  -30.2945 C   0  0  0  0  0  0  0  0  0  0  0  0
  -22.1427   -4.7351  -31.7022 C   0  0  0  0  0  0  0  0  0  0  0  0
  -20.6146   -4.8328  -26.0243 N   0  0  0  0  0  0  0  0  0  0  0  0
  -24.5820   -4.1669  -22.9205 N   0  3  0  0  0  0  0  0  0  0  0  0
  -15.1475   -5.3586  -25.2342 O   0  0  0  0  0  0  0  0  0  0  0  0
  -24.1913   -3.4735  -30.0508 O   0  0  0  0  0  0  0  0  0  0  0  0
  -21.5341   -3.8749  -30.7421 O   0  0  0  0  0  0  0  0  0  0  0  0
  -18.6136   -5.7567  -35.6273 H   0  0  0  0  0  0  0  0  0  0  0  0
  -20.3344   -7.4435  -35.0367 H   0  0  0  0  0  0  0  0  0  0  0  0
  -18.5216   -3.5986  -34.4061 H   0  0  0  0  0  0  0  0  0  0  0  0
  -21.9603   -6.9786  -33.2326 H   0  0  0  0  0  0  0  0  0  0  0  0
  -20.1428   -3.1242  -32.6006 H   0  0  0  0  0  0  0  0  0  0  0  0
  -18.7976   -2.9152  -26.3500 H   0  0  0  0  0  0  0  0  0  0  0  0
  -19.3534   -7.0465  -25.2539 H   0  0  0  0  0  0  0  0  0  0  0  0
  -16.3683   -3.1516  -25.9980 H   0  0  0  0  0  0  0  0  0  0  0  0
  -16.9233   -7.2775  -24.9035 H   0  0  0  0  0  0  0  0  0  0  0  0
  -24.7279   -3.7985  -27.5041 H   0  0  0  0  0  0  0  0  0  0  0  0
  -19.9520   -4.5049  -28.7544 H   0  0  0  0  0  0  0  0  0  0  0  0
  -23.9403   -2.5815  -25.1034 H   0  0  0  0  0  0  0  0  0  0  0  0
  -22.2203   -2.5138  -24.7769 H   0  0  0  0  0  0  0  0  0  0  0  0
  -23.9820   -6.4173  -25.4315 H   0  0  0  0  0  0  0  0  0  0  0  0
  -25.0515   -5.0325  -25.4673 H   0  0  0  0  0  0  0  0  0  0  0  0
  -21.2110   -4.8596  -23.9852 H   0  0  0  0  0  0  0  0  0  0  0  0
  -21.6920   -6.2694  -24.9357 H   0  0  0  0  0  0  0  0  0  0  0  0
  -22.5533   -3.6682  -22.5861 H   0  0  0  0  0  0  0  0  0  0  0  0
  -23.6605   -2.2767  -22.7251 H   0  0  0  0  0  0  0  0  0  0  0  0
  -25.2735   -6.1261  -23.3063 H   0  0  0  0  0  0  0  0  0  0  0  0
  -23.5195   -5.9997  -22.9846 H   0  0  0  0  0  0  0  0  0  0  0  0
  -24.1264   -4.6756  -20.9224 H   0  0  0  0  0  0  0  0  0  0  0  0
  -25.1620   -3.2173  -21.1256 H   0  0  0  0  0  0  0  0  0  0  0  0
  -25.8564   -4.8577  -21.3849 H   0  0  0  0  0  0  0  0  0  0  0  0
  -13.2951   -4.4427  -25.2739 H   0  0  0  0  0  0  0  0  0  0  0  0
  -14.6694   -3.3940  -24.8052 H   0  0  0  0  0  0  0  0  0  0  0  0
  -14.4604   -3.8903  -26.5053 H   0  0  0  0  0  0  0  0  0  0  0  0
  -25.1420   -1.9513  -31.0744 H   0  0  0  0  0  0  0  0  0  0  0  0
  -23.4435   -1.6290  -30.6060 H   0  0  0  0  0  0  0  0  0  0  0  0
  -24.7325   -1.6054  -29.3738 H   0  0  0  0  0  0  0  0  0  0  0  0
  -23.0404   -4.2489  -32.0991 H   0  0  0  0  0  0  0  0  0  0  0  0
  -22.4528   -5.6623  -31.2083 H   0  0  0  0  0  0  0  0  0  0  0  0
  -25.3848   -3.7493  -23.4110 H   0  0  0  0  0  0  0  0  0  0  0  0
  1  2  2  0  0  0  0
  1  3  1  0  0  0  0
  2  4  1  0  0  0  0
  3  5  2  0  0  0  0
  4 13  2  0  0  0  0
  5 13  1  0  0  0  0
  6  8  1  0  0  0  0
  6 14  2  0  0  0  0
  7  9  2  0  0  0  0
  7 14  1  0  0  0  0
  8 16  2  0  0  0  0
  9 16  1  0  0  0  0
 10 12  2  0  0  0  0
 10 17  1  0  0  0  0
 11 15  2  0  0  0  0
 11 18  1  0  0  0  0
 12 15  1  0  0  0  0
 12 24  1  0  0  0  0
 13 28  1  0  0  0  0
 14 29  1  0  0  0  0
 15 29  1  0  0  0  0
 16 31  1  0  0  0  0
 17 18  2  0  0  0  0
 17 32  1  0  0  0  0
 18 33  1  0  0  0  0
 19 22  1  0  0  0  0
 19 24  1  0  0  0  0
 20 23  1  0  0  0  0
 20 24  1  0  0  0  0
 21 24  1  0  0  0  0
 21 29  1  0  0  0  0
 22 30  1  0  0  0  0
 23 30  1  0  0  0  0
 25 30  1  0  0  0  0
 26 31  1  0  0  0  0
 27 32  1  0  0  0  0
 28 33  1  0  0  0  0
  1 34  1  0  0  0  0
  2 35  1  0  0  0  0
  3 36  1  0  0  0  0
  4 37  1  0  0  0  0
  5 38  1  0  0  0  0
  6 39  1  0  0  0  0
  7 40  1  0  0  0  0
  8 41  1  0  0  0  0
  9 42  1  0  0  0  0
 10 43  1  0  0  0  0
 11 44  1  0  0  0  0
 19 45  1  0  0  0  0
 19 46  1  0  0  0  0
 20 47  1  0  0  0  0
 20 48  1  0  0  0  0
 21 49  1  0  0  0  0
 21 50  1  0  0  0  0
 22 51  1  0  0  0  0
 22 52  1  0  0  0  0
 23 53  1  0  0  0  0
 23 54  1  0  0  0  0
 25 55  1  0  0  0  0
 25 56  1  0  0  0  0
 25 57  1  0  0  0  0
 26 58  1  0  0  0  0
 26 59  1  0  0  0  0
 26 60  1  0  0  0  0
 27 61  1  0  0  0  0
 27 62  1  0  0  0  0
 27 63  1  0  0  0  0
 28 64  1  0  0  0  0
 28 65  1  0  0  0  0
 30 66  1  0  0  0  0
M  CHG  1  30   1
M  END
> <SMILES>
COc1ccc(cc1)N1CC2(CCN(C)CC2)c2cc(c(cc21)OCc1ccccc1)OC

> <FORMATTED_ID>
H3D-012477

> <MOLFORMULA>
C28H32N2O3

> <Exact Mass>
444.24

> <XLogP>
6.17

> <TPSA_NOPS>
34.2

> <s_m_source_file>
ligprep_h3d.sdf

> <i_m_source_file_index>
5082

> <i_lp_mmshare_version>
55123

> <i_f3d_flags>
0

> <s_epik_input>
W0NIM11PYzFbY0hdW2NIXWMoW2NIXVtjSF0xKU4oW0NIMl0yKWMoYzNDMjRbQ0gyXVtDSDJdTihbQ0gzXSlbQ0gyXVtDSDJdNClbY0hdYyhjKFtjSF0zKU9bQ0gzXSlPW0NIMl1jNVtjSF1bY0hdW2NIXVtjSF1bY0hdNQ==

> <s_epik_cmdline>
J2VwaWtfcHl0aG9uJywgJy1waHQnLCAnMC41JywgJy1waCcsICc3LjUnLCAnLXRuJywgJzgnLCAnLW1hJywgJzUwMCcsICctaW1hZScsICc8aW5maWxlLm1hZT4nLCAnLW9tYWUnLCAnPG91dGZpbGUubWFlPic=

> <r_lp_tautomer_probability>
1

> <r_epik_Ionization_Penalty>
0.00648914

> <r_epik_Ionization_Penalty_Charging>
0.00645416

> <r_epik_Ionization_Penalty_Neutral>
3.49834e-05

> <r_epik_State_Penalty>
-0

> <r_epik_Charging_Adjusted_Penalty>
0.00645416

> <i_epik_Tot_Q>
1

> <i_epik_Tot_abs_Q>
1

> <s_lp_Force_Field>
S-OPLS

> <r_lp_Energy>
72.1229

> <b_lp_Chiralities_Consistent>
1

> <s_lp_Variant>
ligprep_h3d.sdf:5082-1

> <ROCS_ShapeQuery>
_7L13

> <ROCS_TanimotoCombo>
0.772 

> <ROCS_ShapeTanimoto>
0.663 

> <ROCS_ColorTanimoto>
0.109 

> <ROCS_RefTversky>
0.764 

> <ROCS_RefColorTversky>
0.206 

> <ROCS_RefTverskyCombo>
0.970 

> <ROCS_FitTversky>
0.834 

> <ROCS_FitColorTversky>
0.187 

> <ROCS_FitTverskyCombo>
1.021 

> <ROCS_ColorScore>
-1.866

> <ROCS_Overlap>
1262.922

> <ROCS_Rank>
648                 

$$$$
ligprep_h3d.sdf:5122_649
  -OEChem-08212117123D

 64 68  0     0  0  0  0  0  0999 V2000
  -19.2181   -5.5289  -34.8065 C   0  0  0  0  0  0  0  0  0  0  0  0
  -20.1894   -6.4770  -34.4852 C   0  0  0  0  0  0  0  0  0  0  0  0
  -19.1702   -4.3179  -34.1159 C   0  0  0  0  0  0  0  0  0  0  0  0
  -21.1130   -6.2141  -33.4735 C   0  0  0  0  0  0  0  0  0  0  0  0
  -20.0938   -4.0549  -33.1042 C   0  0  0  0  0  0  0  0  0  0  0  0
  -18.3052   -4.1999  -26.5253 C   0  0  0  0  0  0  0  0  0  0  0  0
  -18.7257   -5.8768  -24.8533 C   0  0  0  0  0  0  0  0  0  0  0  0
  -23.6368   -3.9518  -27.7797 C   0  0  0  0  0  0  0  0  0  0  0  0
  -20.9324   -4.3486  -28.4554 C   0  0  0  0  0  0  0  0  0  0  0  0
  -16.9524   -4.3708  -26.2793 C   0  0  0  0  0  0  0  0  0  0  0  0
  -17.3540   -5.9729  -24.6823 C   0  0  0  0  0  0  0  0  0  0  0  0
  -22.7005   -4.3023  -26.8144 C   0  0  0  0  0  0  0  0  0  0  0  0
  -21.0651   -5.0030  -32.7830 C   0  0  0  0  0  0  0  0  0  0  0  0
  -19.2021   -4.9711  -25.7945 C   0  0  0  0  0  0  0  0  0  0  0  0
  -21.3478   -4.4853  -27.1366 C   0  0  0  0  0  0  0  0  0  0  0  0
  -23.2123   -3.8022  -29.0984 C   0  0  0  0  0  0  0  0  0  0  0  0
  -21.8691   -4.0037  -29.4347 C   0  0  0  0  0  0  0  0  0  0  0  0
  -23.0866   -3.1390  -24.6318 C   0  0  0  0  0  0  0  0  0  0  0  0
  -24.1060   -5.4193  -25.0152 C   0  0  0  0  0  0  0  0  0  0  0  0
  -21.5563   -5.1808  -24.9550 C   0  0  0  0  0  0  0  0  0  0  0  0
  -23.3859   -3.2633  -23.1413 C   0  0  0  0  0  0  0  0  0  0  0  0
  -24.3534   -5.5477  -23.5178 C   0  0  0  0  0  0  0  0  0  0  0  0
  -22.9120   -4.5025  -25.3334 C   0  0  0  0  0  0  0  0  0  0  0  0
  -24.3116   -2.0677  -30.2978 C   0  0  0  0  0  0  0  0  0  0  0  0
  -22.0585   -4.7194  -31.6947 C   0  0  0  0  0  0  0  0  0  0  0  0
  -24.9636   -4.2456  -21.4819 C   0  0  0  0  0  0  0  0  0  0  0  0
  -26.3844   -4.7515  -21.3802 C   0  0  0  0  0  0  0  0  0  0  0  0
  -16.4519   -5.2406  -25.3733 N   0  0  0  0  0  0  0  0  0  0  0  0
  -20.5778   -4.8360  -26.0047 N   0  0  0  0  0  0  0  0  0  0  0  0
  -24.5699   -4.1737  -22.9320 N   0  3  0  0  0  0  0  0  0  0  0  0
  -24.1190   -3.4598  -30.0567 O   0  0  0  0  0  0  0  0  0  0  0  0
  -21.4567   -3.8629  -30.7271 O   0  0  0  0  0  0  0  0  0  0  0  0
  -27.2154   -3.8772  -22.0083 F   0  0  0  0  0  0  0  0  0  0  0  0
  -18.4982   -5.7344  -35.5933 H   0  0  0  0  0  0  0  0  0  0  0  0
  -20.2261   -7.4205  -35.0220 H   0  0  0  0  0  0  0  0  0  0  0  0
  -18.4134   -3.5799  -34.3650 H   0  0  0  0  0  0  0  0  0  0  0  0
  -21.8664   -6.9586  -33.2301 H   0  0  0  0  0  0  0  0  0  0  0  0
  -20.0490   -3.1086  -32.5717 H   0  0  0  0  0  0  0  0  0  0  0  0
  -18.6442   -3.4845  -27.2670 H   0  0  0  0  0  0  0  0  0  0  0  0
  -19.3979   -6.4937  -24.2663 H   0  0  0  0  0  0  0  0  0  0  0  0
  -24.6772   -3.7916  -27.5155 H   0  0  0  0  0  0  0  0  0  0  0  0
  -19.8920   -4.5009  -28.7281 H   0  0  0  0  0  0  0  0  0  0  0  0
  -16.2119   -3.7935  -26.8231 H   0  0  0  0  0  0  0  0  0  0  0  0
  -16.9313   -6.6645  -23.9610 H   0  0  0  0  0  0  0  0  0  0  0  0
  -23.9079   -2.5828  -25.1047 H   0  0  0  0  0  0  0  0  0  0  0  0
  -22.1906   -2.5185  -24.7637 H   0  0  0  0  0  0  0  0  0  0  0  0
  -23.9521   -6.4176  -25.4445 H   0  0  0  0  0  0  0  0  0  0  0  0
  -25.0194   -5.0312  -25.4852 H   0  0  0  0  0  0  0  0  0  0  0  0
  -21.1911   -4.8680  -23.9707 H   0  0  0  0  0  0  0  0  0  0  0  0
  -21.6661   -6.2743  -24.9293 H   0  0  0  0  0  0  0  0  0  0  0  0
  -22.5434   -3.6788  -22.5793 H   0  0  0  0  0  0  0  0  0  0  0  0
  -23.6475   -2.2854  -22.7232 H   0  0  0  0  0  0  0  0  0  0  0  0
  -25.2609   -6.1309  -23.3293 H   0  0  0  0  0  0  0  0  0  0  0  0
  -23.5094   -6.0079  -22.9927 H   0  0  0  0  0  0  0  0  0  0  0  0
  -25.0591   -1.9332  -31.0836 H   0  0  0  0  0  0  0  0  0  0  0  0
  -23.3641   -1.6148  -30.6002 H   0  0  0  0  0  0  0  0  0  0  0  0
  -24.6632   -1.5930  -29.3787 H   0  0  0  0  0  0  0  0  0  0  0  0
  -22.9522   -4.2308  -32.0976 H   0  0  0  0  0  0  0  0  0  0  0  0
  -22.3739   -5.6476  -31.2062 H   0  0  0  0  0  0  0  0  0  0  0  0
  -24.8669   -3.2323  -21.0835 H   0  0  0  0  0  0  0  0  0  0  0  0
  -24.2546   -4.9170  -20.9908 H   0  0  0  0  0  0  0  0  0  0  0  0
  -26.6987   -4.8143  -20.3346 H   0  0  0  0  0  0  0  0  0  0  0  0
  -26.5079   -5.7342  -21.8452 H   0  0  0  0  0  0  0  0  0  0  0  0
  -25.3681   -3.7536  -23.4279 H   0  0  0  0  0  0  0  0  0  0  0  0
  1  2  2  0  0  0  0
  1  3  1  0  0  0  0
  2  4  1  0  0  0  0
  3  5  2  0  0  0  0
  4 13  2  0  0  0  0
  5 13  1  0  0  0  0
  6 10  1  0  0  0  0
  6 14  2  0  0  0  0
  7 11  2  0  0  0  0
  7 14  1  0  0  0  0
  8 12  1  0  0  0  0
  8 16  2  0  0  0  0
  9 15  1  0  0  0  0
  9 17  2  0  0  0  0
 10 28  2  0  0  0  0
 11 28  1  0  0  0  0
 12 15  2  0  0  0  0
 12 23  1  0  0  0  0
 13 25  1  0  0  0  0
 14 29  1  0  0  0  0
 15 29  1  0  0  0  0
 16 17  1  0  0  0  0
 16 31  1  0  0  0  0
 17 32  1  0  0  0  0
 18 21  1  0  0  0  0
 18 23  1  0  0  0  0
 19 22  1  0  0  0  0
 19 23  1  0  0  0  0
 20 23  1  0  0  0  0
 20 29  1  0  0  0  0
 21 30  1  0  0  0  0
 22 30  1  0  0  0  0
 24 31  1  0  0  0  0
 25 32  1  0  0  0  0
 26 27  1  0  0  0  0
 26 30  1  0  0  0  0
 27 33  1  0  0  0  0
  1 34  1  0  0  0  0
  2 35  1  0  0  0  0
  3 36  1  0  0  0  0
  4 37  1  0  0  0  0
  5 38  1  0  0  0  0
  6 39  1  0  0  0  0
  7 40  1  0  0  0  0
  8 41  1  0  0  0  0
  9 42  1  0  0  0  0
 10 43  1  0  0  0  0
 11 44  1  0  0  0  0
 18 45  1  0  0  0  0
 18 46  1  0  0  0  0
 19 47  1  0  0  0  0
 19 48  1  0  0  0  0
 20 49  1  0  0  0  0
 20 50  1  0  0  0  0
 21 51  1  0  0  0  0
 21 52  1  0  0  0  0
 22 53  1  0  0  0  0
 22 54  1  0  0  0  0
 24 55  1  0  0  0  0
 24 56  1  0  0  0  0
 24 57  1  0  0  0  0
 25 58  1  0  0  0  0
 25 59  1  0  0  0  0
 26 60  1  0  0  0  0
 26 61  1  0  0  0  0
 27 62  1  0  0  0  0
 27 63  1  0  0  0  0
 30 64  1  0  0  0  0
M  CHG  1  30   1
M  END
> <SMILES>
COc1cc2c(cc1OCc1ccccc1)N(CC12CCN(CCF)CC1)c1ccncc1

> <FORMATTED_ID>
H3D-012695

> <MOLFORMULA>
C27H30FN3O2

> <Exact Mass>
447.23

> <XLogP>
4.93

> <TPSA_NOPS>
37.8

> <s_m_source_file>
ligprep_h3d.sdf

> <i_m_source_file_index>
5122

> <i_lp_mmshare_version>
55123

> <i_f3d_flags>
0

> <s_epik_input>
W2NIXTFbY0hdW2NIXVtjSF1bY0hdYzFbQ0gyXU9jKGMoW2NIXTIpT1tDSDNdKVtjSF1jKGMyQzM0W0NIMl1bQ0gyXU4oW0NIMl1bQ0gyXUYpW0NIMl1bQ0gyXTQpTihbQ0gyXTMpYzVbY0hdW2NIXW5bY0hdW2NIXTU=

> <s_epik_cmdline>
J2VwaWtfcHl0aG9uJywgJy1waHQnLCAnMC41JywgJy1waCcsICc3LjUnLCAnLXRuJywgJzgnLCAnLW1hJywgJzUwMCcsICctaW1hZScsICc8aW5maWxlLm1hZT4nLCAnLW9tYWUnLCAnPG91dGZpbGUubWFlPic=

> <r_lp_tautomer_probability>
1

> <r_epik_Ionization_Penalty>
0.285071

> <r_epik_Ionization_Penalty_Charging>
0.162205

> <r_epik_Ionization_Penalty_Neutral>
0.122866

> <r_epik_State_Penalty>
0.272063

> <r_epik_Charging_Adjusted_Penalty>
0.434268

> <i_epik_Tot_Q>
1

> <i_epik_Tot_abs_Q>
1

> <s_lp_Force_Field>
S-OPLS

> <r_lp_Energy>
72.668

> <b_lp_Chiralities_Consistent>
1

> <s_lp_Variant>
ligprep_h3d.sdf:5122-1

> <ROCS_ShapeQuery>
_7L13

> <ROCS_TanimotoCombo>
0.772 

> <ROCS_ShapeTanimoto>
0.664 

> <ROCS_ColorTanimoto>
0.109 

> <ROCS_RefTversky>
0.764 

> <ROCS_RefColorTversky>
0.206 

> <ROCS_RefTverskyCombo>
0.970 

> <ROCS_FitTversky>
0.835 

> <ROCS_FitColorTversky>
0.187 

> <ROCS_FitTverskyCombo>
1.021 

> <ROCS_ColorScore>
-1.862

> <ROCS_Overlap>
1262.860

> <ROCS_Rank>
649                 

$$$$
ligprep_h3d.sdf:512_63
  -OEChem-08212117123D

 57 62  0     1  0  0  0  0  0999 V2000
  -19.5310   -5.8389  -35.7575 C   0  0  0  0  0  0  0  0  0  0  0  0
  -21.0030   -5.1760  -29.4913 C   0  0  0  0  0  0  0  0  0  0  0  0
  -21.7566   -4.4014  -30.3758 C   0  0  0  0  0  0  0  0  0  0  0  0
  -21.1126   -4.9236  -28.1027 C   0  0  0  0  0  0  0  0  0  0  0  0
  -21.9858   -3.9436  -27.5741 C   0  0  0  0  0  0  0  0  0  0  0  0
  -22.5796   -3.4262  -29.8568 C   0  0  0  0  0  0  0  0  0  0  0  0
  -22.7232   -3.1622  -28.4945 C   0  0  0  0  0  0  0  0  0  0  0  0
  -21.9477   -4.2965  -31.7661 C   0  0  0  0  0  0  0  0  0  0  0  0
  -18.9001   -3.8631  -26.2332 C   0  0  0  0  0  0  0  0  0  0  0  0
  -19.2674   -6.0607  -24.9934 C   0  0  0  0  0  0  0  0  0  0  0  0
  -17.0749   -5.2333  -25.8182 C   0  0  0  0  0  0  0  0  0  0  0  0
  -20.2754   -5.7619  -27.1742 C   0  0  0  0  0  0  0  0  0  0  0  0
  -19.9482   -6.8475  -33.5222 C   0  0  0  0  0  0  0  0  0  0  0  0
  -20.8672   -6.4802  -32.3589 C   0  0  0  0  0  0  0  0  0  0  0  0
  -20.9170   -4.7173  -34.0153 C   0  0  0  0  0  0  0  0  0  0  0  0
  -23.0376   -2.7780  -25.6459 C   0  0  0  0  0  0  0  0  0  0  0  0
  -20.5079   -6.0337  -34.6838 C   0  0  1  0  0  0  0  0  0  0  0  0
  -21.2107   -4.4673  -25.2268 C   0  0  2  0  0  0  0  0  0  0  0  0
  -23.4115   -3.0826  -24.1923 C   0  0  1  0  0  0  0  0  0  0  0  0
  -21.0404   -3.5269  -23.9976 C   0  0  2  0  0  0  0  0  0  0  0  0
  -19.8932   -4.9960  -25.8835 C   0  0  2  0  0  0  0  0  0  0  0  0
  -24.4107   -4.2316  -24.0714 C   0  0  0  0  0  0  0  0  0  0  0  0
  -20.0865   -4.0029  -22.9093 C   0  0  0  0  0  0  0  0  0  0  0  0
  -18.7572   -5.6846  -36.6082 N   0  0  0  0  0  0  0  0  0  0  0  0
  -22.8167   -3.3332  -32.0870 N   0  0  0  0  0  0  0  0  0  0  0  0
  -17.6429   -4.2300  -26.4886 N   0  5  0  0  0  0  0  0  0  0  0  0
  -17.8879   -6.0655  -25.0509 N   0  0  0  0  0  0  0  0  0  0  0  0
  -22.0920   -3.7588  -26.1934 N   0  0  3  0  0  0  0  0  0  0  0  0
  -21.2877   -5.1143  -32.6585 N   0  0  0  0  0  0  0  0  0  0  0  0
  -19.2937   -2.7058  -26.3770 O   0  0  0  0  0  0  0  0  0  0  0  0
  -19.9132   -6.8845  -24.3495 O   0  0  0  0  0  0  0  0  0  0  0  0
  -15.8643   -5.4680  -25.8630 O   0  0  0  0  0  0  0  0  0  0  0  0
  -23.2140   -2.7820  -30.8744 O   0  0  0  0  0  0  0  0  0  0  0  0
  -22.3030   -3.3553  -23.3402 O   0  0  0  0  0  0  0  0  0  0  0  0
  -23.4748   -2.1152  -28.1335 F   0  0  0  0  0  0  0  0  0  0  0  0
  -20.3380   -5.9510  -29.8618 H   0  0  0  0  0  0  0  0  0  0  0  0
  -20.8500   -6.6671  -26.9342 H   0  0  0  0  0  0  0  0  0  0  0  0
  -19.3694   -6.0985  -27.6952 H   0  0  0  0  0  0  0  0  0  0  0  0
  -18.9160   -6.5543  -33.2908 H   0  0  0  0  0  0  0  0  0  0  0  0
  -19.9535   -7.9231  -33.7263 H   0  0  0  0  0  0  0  0  0  0  0  0
  -21.7438   -7.1386  -32.3330 H   0  0  0  0  0  0  0  0  0  0  0  0
  -20.3417   -6.5525  -31.3999 H   0  0  0  0  0  0  0  0  0  0  0  0
  -20.0883   -3.9980  -33.9747 H   0  0  0  0  0  0  0  0  0  0  0  0
  -21.7553   -4.2482  -34.5451 H   0  0  0  0  0  0  0  0  0  0  0  0
  -23.9493   -2.8116  -26.2774 H   0  0  0  0  0  0  0  0  0  0  0  0
  -22.7113   -1.7273  -25.6925 H   0  0  0  0  0  0  0  0  0  0  0  0
  -21.4021   -6.5325  -35.0790 H   0  0  0  0  0  0  0  0  0  0  0  0
  -21.7974   -5.3371  -24.8899 H   0  0  0  0  0  0  0  0  0  0  0  0
  -23.9471   -2.1676  -23.7599 H   0  0  0  0  0  0  0  0  0  0  0  0
  -20.6959   -2.5251  -24.3116 H   0  0  0  0  0  0  0  0  0  0  0  0
  -23.9736   -5.1493  -24.4654 H   0  0  0  0  0  0  0  0  0  0  0  0
  -25.3149   -4.0006  -24.6347 H   0  0  0  0  0  0  0  0  0  0  0  0
  -24.6758   -4.3870  -23.0254 H   0  0  0  0  0  0  0  0  0  0  0  0
  -20.3820   -4.9928  -22.5613 H   0  0  0  0  0  0  0  0  0  0  0  0
  -20.1068   -3.3113  -22.0670 H   0  0  0  0  0  0  0  0  0  0  0  0
  -19.0703   -4.0543  -23.3005 H   0  0  0  0  0  0  0  0  0  0  0  0
  -17.4136   -6.7507  -24.4704 H   0  0  0  0  0  0  0  0  0  0  0  0
  1 17  1  0  0  0  0
  1 24  3  0  0  0  0
  2  3  2  0  0  0  0
  2  4  1  0  0  0  0
  3  6  1  0  0  0  0
  3  8  1  0  0  0  0
  4  5  2  0  0  0  0
  4 12  1  0  0  0  0
  5  7  1  0  0  0  0
  5 28  1  0  0  0  0
  6  7  2  0  0  0  0
  6 33  1  0  0  0  0
  7 35  1  0  0  0  0
  8 25  2  0  0  0  0
  8 29  1  0  0  0  0
  9 21  1  0  0  0  0
  9 26  1  0  0  0  0
  9 30  2  0  0  0  0
 10 21  1  0  0  0  0
 10 27  1  0  0  0  0
 10 31  2  0  0  0  0
 11 26  1  0  0  0  0
 11 27  1  0  0  0  0
 11 32  2  0  0  0  0
 12 21  1  0  0  0  0
 13 14  1  0  0  0  0
 13 17  1  0  0  0  0
 14 29  1  0  0  0  0
 15 17  1  0  0  0  0
 15 29  1  0  0  0  0
 16 19  1  0  0  0  0
 16 28  1  0  0  0  0
 18 20  1  0  0  0  0
 18 21  1  0  0  0  0
 18 28  1  0  0  0  0
 19 22  1  0  0  0  0
 19 34  1  0  0  0  0
 20 23  1  0  0  0  0
 20 34  1  0  0  0  0
 25 33  1  0  0  0  0
  2 36  1  0  0  0  0
 12 37  1  0  0  0  0
 12 38  1  0  0  0  0
 13 39  1  0  0  0  0
 13 40  1  0  0  0  0
 14 41  1  0  0  0  0
 14 42  1  0  0  0  0
 15 43  1  0  0  0  0
 15 44  1  0  0  0  0
 16 45  1  0  0  0  0
 16 46  1  0  0  0  0
 17 47  1  0  0  0  0
 18 48  1  0  0  0  0
 19 49  1  0  0  0  0
 20 50  1  0  0  0  0
 22 51  1  0  0  0  0
 22 52  1  0  0  0  0
 22 53  1  0  0  0  0
 23 54  1  0  0  0  0
 23 55  1  0  0  0  0
 23 56  1  0  0  0  0
 27 57  1  0  0  0  0
M  CHG  1  26  -1
M  END
> <SMILES>
CC1CN2C(C(C)O1)C1(Cc3cc4c(noc4c(c32)F)N2CC[C@@H](C2)C#N)C(=O)NC(=O)NC1=O

> <FORMATTED_ID>
H3D-004140

> <MOLFORMULA>
C23H23FN6O5

> <Exact Mass>
482.17

> <XLogP>
0.41

> <TPSA_NOPS>
141.1

> <s_m_source_file>
ligprep_h3d.sdf

> <i_m_source_file_index>
512

> <i_lp_mmshare_version>
55123

> <i_f3d_flags>
0

> <s_epik_input>
Tz1DMVtOSF1DKD1PKVtOSF1DKD1PKUMxMltDQEBIXTNOKFtDSDJdW0NAQEhdKFtDSDNdKU9bQ0BIXTNbQ0gzXSljNGMoW0NIMl0yKVtjSF1jNWMoYzRGKW9uYzVONltDSDJdW0NIMl1bQ0BASF0oW0NIMl02KUMjTg==

> <s_epik_cmdline>
J2VwaWtfcHl0aG9uJywgJy1waHQnLCAnMC41JywgJy1waCcsICc3LjUnLCAnLXRuJywgJzgnLCAnLW1hJywgJzUwMCcsICctaW1hZScsICc8aW5maWxlLm1hZT4nLCAnLW9tYWUnLCAnPG91dGZpbGUubWFlPic=

> <r_lp_tautomer_probability>
1

> <r_epik_Ionization_Penalty>
0.455388

> <r_epik_Ionization_Penalty_Charging>
0.455373

> <r_epik_Ionization_Penalty_Neutral>
1.46211e-05

> <r_epik_State_Penalty>
0.458483

> <r_epik_Charging_Adjusted_Penalty>
0.913857

> <i_epik_Tot_Q>
-1

> <i_epik_Tot_abs_Q>
1

> <s_lp_Force_Field>
S-OPLS

> <r_lp_Energy>
54.2125

> <b_lp_Chiralities_Consistent>
1

> <s_lp_Variant>
ligprep_h3d.sdf:512-2

> <ROCS_ShapeQuery>
_7L13

> <ROCS_TanimotoCombo>
0.749 

> <ROCS_ShapeTanimoto>
0.618 

> <ROCS_ColorTanimoto>
0.131 

> <ROCS_RefTversky>
0.764 

> <ROCS_RefColorTversky>
0.298 

> <ROCS_RefTverskyCombo>
1.062 

> <ROCS_FitTversky>
0.764 

> <ROCS_FitColorTversky>
0.188 

> <ROCS_FitTverskyCombo>
0.953 

> <ROCS_ColorScore>
-2.775

> <ROCS_Overlap>
1268.702

> <ROCS_Rank>
650                 

$$$$
ligprep_h3d.sdf:5231_788
  -OEChem-08212117123D

 61 65  0     0  0  0  0  0  0999 V2000
  -25.6835   -4.4448  -23.3736 C   0  0  0  0  0  0  0  0  0  0  0  0
  -24.5108   -3.9315  -22.8198 C   0  0  0  0  0  0  0  0  0  0  0  0
  -25.6516   -5.0655  -24.6224 C   0  0  0  0  0  0  0  0  0  0  0  0
  -23.3061   -4.0387  -23.5147 C   0  0  0  0  0  0  0  0  0  0  0  0
  -24.4469   -5.1727  -25.3174 C   0  0  0  0  0  0  0  0  0  0  0  0
  -20.6189   -4.8656  -29.5917 C   0  0  0  0  0  0  0  0  0  0  0  0
  -22.6860   -3.2480  -28.5208 C   0  0  0  0  0  0  0  0  0  0  0  0
  -18.1298   -7.6234  -36.9980 C   0  0  0  0  0  0  0  0  0  0  0  0
  -21.5631   -4.2815  -30.4195 C   0  0  0  0  0  0  0  0  0  0  0  0
  -23.2742   -4.6593  -24.7635 C   0  0  0  0  0  0  0  0  0  0  0  0
  -22.5711   -3.4879  -29.8761 C   0  0  0  0  0  0  0  0  0  0  0  0
  -20.7121   -4.6389  -28.2147 C   0  0  0  0  0  0  0  0  0  0  0  0
  -21.7375   -3.8369  -27.6838 C   0  0  0  0  0  0  0  0  0  0  0  0
  -18.7604   -6.4268  -37.2590 C   0  0  0  0  0  0  0  0  0  0  0  0
  -18.8684   -7.5410  -34.8353 C   0  0  0  0  0  0  0  0  0  0  0  0
  -19.4984   -6.3440  -35.0960 C   0  0  0  0  0  0  0  0  0  0  0  0
  -22.9745   -3.4542  -32.1414 C   0  0  0  0  0  0  0  0  0  0  0  0
  -22.0121   -5.7732  -32.4000 C   0  0  0  0  0  0  0  0  0  0  0  0
  -20.5166   -3.7129  -32.6573 C   0  0  0  0  0  0  0  0  0  0  0  0
  -21.6239   -5.9927  -33.8634 C   0  0  0  0  0  0  0  0  0  0  0  0
  -19.5305   -4.7562  -33.1863 C   0  0  0  0  0  0  0  0  0  0  0  0
  -21.7139   -4.3416  -31.9248 C   0  0  0  0  0  0  0  0  0  0  0  0
  -18.6913   -5.8174  -38.6159 C   0  0  0  0  0  0  0  0  0  0  0  0
  -18.9174   -8.1786  -33.4877 C   0  0  0  0  0  0  0  0  0  0  0  0
  -18.6136   -4.4533  -27.1111 C   0  0  0  0  0  0  0  0  0  0  0  0
  -21.9787   -4.7748  -25.5118 C   0  0  0  0  0  0  0  0  0  0  0  0
  -18.1726   -8.2020  -35.7815 N   0  0  0  0  0  0  0  0  0  0  0  0
  -19.4560   -5.7656  -36.3127 N   0  0  0  0  0  0  0  0  0  0  0  0
  -23.3932   -3.0066  -30.8858 N   0  0  0  0  0  0  0  0  0  0  0  0
  -20.2024   -5.7080  -34.0744 N   0  0  0  0  0  0  0  0  0  0  0  0
  -23.4986   -3.2047  -33.2172 O   0  0  0  0  0  0  0  0  0  0  0  0
  -19.7907   -5.2088  -27.3854 O   0  0  0  0  0  0  0  0  0  0  0  0
  -21.8149   -3.6252  -26.3387 O   0  0  0  0  0  0  0  0  0  0  0  0
  -26.6212   -4.3624  -22.8318 H   0  0  0  0  0  0  0  0  0  0  0  0
  -24.5352   -3.4491  -21.8469 H   0  0  0  0  0  0  0  0  0  0  0  0
  -26.5642   -5.4663  -25.0534 H   0  0  0  0  0  0  0  0  0  0  0  0
  -22.3974   -3.6356  -23.0755 H   0  0  0  0  0  0  0  0  0  0  0  0
  -24.4316   -5.6578  -26.2898 H   0  0  0  0  0  0  0  0  0  0  0  0
  -19.8265   -5.4856  -29.9972 H   0  0  0  0  0  0  0  0  0  0  0  0
  -23.4799   -2.6267  -28.1210 H   0  0  0  0  0  0  0  0  0  0  0  0
  -17.5685   -8.1607  -37.7535 H   0  0  0  0  0  0  0  0  0  0  0  0
  -23.0765   -6.0112  -32.2746 H   0  0  0  0  0  0  0  0  0  0  0  0
  -21.4685   -6.5092  -31.7924 H   0  0  0  0  0  0  0  0  0  0  0  0
  -19.9795   -3.0088  -32.0083 H   0  0  0  0  0  0  0  0  0  0  0  0
  -20.8615   -3.1149  -33.5120 H   0  0  0  0  0  0  0  0  0  0  0  0
  -21.8634   -7.0264  -34.1436 H   0  0  0  0  0  0  0  0  0  0  0  0
  -22.2159   -5.3413  -34.5166 H   0  0  0  0  0  0  0  0  0  0  0  0
  -18.7290   -4.2432  -33.7318 H   0  0  0  0  0  0  0  0  0  0  0  0
  -19.0661   -5.2930  -32.3505 H   0  0  0  0  0  0  0  0  0  0  0  0
  -19.5252   -6.1681  -39.2376 H   0  0  0  0  0  0  0  0  0  0  0  0
  -18.7348   -4.7208  -38.5654 H   0  0  0  0  0  0  0  0  0  0  0  0
  -17.7505   -6.0729  -39.1225 H   0  0  0  0  0  0  0  0  0  0  0  0
  -19.7821   -8.8493  -33.4141 H   0  0  0  0  0  0  0  0  0  0  0  0
  -18.0079   -8.7601  -33.2890 H   0  0  0  0  0  0  0  0  0  0  0  0
  -18.9926   -7.4249  -32.6931 H   0  0  0  0  0  0  0  0  0  0  0  0
  -17.9643   -5.0200  -26.4393 H   0  0  0  0  0  0  0  0  0  0  0  0
  -18.8897   -3.5011  -26.6510 H   0  0  0  0  0  0  0  0  0  0  0  0
  -18.0866   -4.2631  -28.0491 H   0  0  0  0  0  0  0  0  0  0  0  0
  -21.1316   -4.8411  -24.8205 H   0  0  0  0  0  0  0  0  0  0  0  0
  -21.9720   -5.6726  -26.1392 H   0  0  0  0  0  0  0  0  0  0  0  0
  -24.1942   -2.4084  -30.7206 H   0  0  0  0  0  0  0  0  0  0  0  0
  1  2  2  0  0  0  0
  1  3  1  0  0  0  0
  2  4  1  0  0  0  0
  3  5  2  0  0  0  0
  4 10  2  0  0  0  0
  5 10  1  0  0  0  0
  6  9  1  0  0  0  0
  6 12  2  0  0  0  0
  7 11  1  0  0  0  0
  7 13  2  0  0  0  0
  8 14  2  0  0  0  0
  8 27  1  0  0  0  0
  9 11  2  0  0  0  0
  9 22  1  0  0  0  0
 10 26  1  0  0  0  0
 11 29  1  0  0  0  0
 12 13  1  0  0  0  0
 12 32  1  0  0  0  0
 13 33  1  0  0  0  0
 14 23  1  0  0  0  0
 14 28  1  0  0  0  0
 15 16  1  0  0  0  0
 15 24  1  0  0  0  0
 15 27  2  0  0  0  0
 16 28  2  0  0  0  0
 16 30  1  0  0  0  0
 17 22  1  0  0  0  0
 17 29  1  0  0  0  0
 17 31  2  0  0  0  0
 18 20  1  0  0  0  0
 18 22  1  0  0  0  0
 19 21  1  0  0  0  0
 19 22  1  0  0  0  0
 20 30  1  0  0  0  0
 21 30  1  0  0  0  0
 25 32  1  0  0  0  0
 26 33  1  0  0  0  0
  1 34  1  0  0  0  0
  2 35  1  0  0  0  0
  3 36  1  0  0  0  0
  4 37  1  0  0  0  0
  5 38  1  0  0  0  0
  6 39  1  0  0  0  0
  7 40  1  0  0  0  0
  8 41  1  0  0  0  0
 18 42  1  0  0  0  0
 18 43  1  0  0  0  0
 19 44  1  0  0  0  0
 19 45  1  0  0  0  0
 20 46  1  0  0  0  0
 20 47  1  0  0  0  0
 21 48  1  0  0  0  0
 21 49  1  0  0  0  0
 23 50  1  0  0  0  0
 23 51  1  0  0  0  0
 23 52  1  0  0  0  0
 24 53  1  0  0  0  0
 24 54  1  0  0  0  0
 24 55  1  0  0  0  0
 25 56  1  0  0  0  0
 25 57  1  0  0  0  0
 25 58  1  0  0  0  0
 26 59  1  0  0  0  0
 26 60  1  0  0  0  0
 29 61  1  0  0  0  0
M  END
> <SMILES>
COc1cc2c(cc1OCc1ccccc1)NC(=O)C12CCN(CC1)c1nc(cnc1C)C

> <FORMATTED_ID>
H3D-014048

> <MOLFORMULA>
C26H28N4O3

> <Exact Mass>
444.22

> <XLogP>
3.43

> <TPSA_NOPS>
76.6

> <s_m_source_file>
ligprep_h3d.sdf

> <i_m_source_file_index>
5231

> <i_lp_mmshare_version>
55123

> <i_f3d_flags>
0

> <s_epik_input>
W2NIXTFbY0hdW2NIXVtjSF1bY0hdYzFbQ0gyXU9jKGMoW2NIXTIpT1tDSDNdKVtjSF1jKFtOSF1DMz1PKWMyQzM0W0NIMl1bQ0gyXU4oW0NIMl1bQ0gyXTQpYzVuYyhbQ0gzXSlbY0hdbmM1W0NIM10=

> <s_epik_cmdline>
J2VwaWtfcHl0aG9uJywgJy1waHQnLCAnMC41JywgJy1waCcsICc3LjUnLCAnLXRuJywgJzgnLCAnLW1hJywgJzUwMCcsICctaW1hZScsICc8aW5maWxlLm1hZT4nLCAnLW9tYWUnLCAnPG91dGZpbGUubWFlPic=

> <r_lp_tautomer_probability>
1

> <r_epik_Ionization_Penalty>
0.00025865

> <r_epik_Ionization_Penalty_Charging>
0

> <r_epik_Ionization_Penalty_Neutral>
0.00025865

> <r_epik_State_Penalty>
-0

> <r_epik_Charging_Adjusted_Penalty>
0

> <i_epik_Tot_Q>
0

> <i_epik_Tot_abs_Q>
0

> <s_lp_Force_Field>
S-OPLS

> <r_lp_Energy>
72.8196

> <b_lp_Chiralities_Consistent>
1

> <s_lp_Variant>
ligprep_h3d.sdf:5231-1

> <ROCS_ShapeQuery>
_7L13

> <ROCS_TanimotoCombo>
0.771 

> <ROCS_ShapeTanimoto>
0.656 

> <ROCS_ColorTanimoto>
0.115 

> <ROCS_RefTversky>
0.764 

> <ROCS_RefColorTversky>
0.226 

> <ROCS_RefTverskyCombo>
0.990 

> <ROCS_FitTversky>
0.823 

> <ROCS_FitColorTversky>
0.189 

> <ROCS_FitTverskyCombo>
1.012 

> <ROCS_ColorScore>
-2.061

> <ROCS_Overlap>
1263.674

> <ROCS_Rank>
651                 

$$$$
ligprep_h3d.sdf:1412_1598
  -OEChem-08212117123D

 65 70  0     0  0  0  0  0  0999 V2000
  -17.2950   -6.7392  -26.6223 C   0  0  0  0  0  0  0  0  0  0  0  0
  -22.9252   -3.4400  -28.6550 C   0  0  0  0  0  0  0  0  0  0  0  0
  -21.0254   -5.0224  -25.3148 C   0  0  0  0  0  0  0  0  0  0  0  0
  -18.2063   -7.8087  -26.7089 C   0  0  0  0  0  0  0  0  0  0  0  0
  -21.1444   -4.7512  -27.7142 C   0  0  0  0  0  0  0  0  0  0  0  0
  -22.4356   -3.6792  -29.9414 C   0  0  0  0  0  0  0  0  0  0  0  0
  -20.6517   -4.9919  -29.0080 C   0  0  0  0  0  0  0  0  0  0  0  0
  -22.2996   -3.9635  -27.5269 C   0  0  0  0  0  0  0  0  0  0  0  0
  -20.5141   -5.2783  -26.5789 C   0  0  0  0  0  0  0  0  0  0  0  0
  -21.2975   -4.4561  -30.1185 C   0  0  0  0  0  0  0  0  0  0  0  0
  -22.1599   -4.2408  -25.2315 C   0  0  0  0  0  0  0  0  0  0  0  0
  -18.0860   -5.6181  -26.5611 C   0  0  0  0  0  0  0  0  0  0  0  0
  -19.1737   -6.5237  -35.9038 C   0  0  0  0  0  0  0  0  0  0  0  0
  -22.7472   -3.9355  -23.9381 C   0  0  0  0  0  0  0  0  0  0  0  0
  -16.2458   -3.8958  -25.8406 C   0  0  0  0  0  0  0  0  0  0  0  0
  -17.4872   -3.5345  -25.0865 C   0  0  0  0  0  0  0  0  0  0  0  0
  -21.2155   -5.5474  -33.6753 C   0  0  0  0  0  0  0  0  0  0  0  0
  -18.9683   -4.5400  -33.0172 C   0  0  0  0  0  0  0  0  0  0  0  0
  -21.2728   -5.8505  -32.1765 C   0  0  0  0  0  0  0  0  0  0  0  0
  -19.8362   -3.7845  -32.0134 C   0  0  0  0  0  0  0  0  0  0  0  0
  -19.8137   -4.3574  -35.4231 C   0  0  0  0  0  0  0  0  0  0  0  0
  -17.6029   -4.1728  -26.4568 C   0  0  0  0  0  0  0  0  0  0  0  0
  -19.7931   -5.1830  -34.1393 C   0  0  0  0  0  0  0  0  0  0  0  0
  -23.1600   -3.0861  -31.1064 C   0  0  0  0  0  0  0  0  0  0  0  0
  -19.4300   -5.8196  -29.2869 C   0  0  0  0  0  0  0  0  0  0  0  0
  -24.7946   -4.1056  -22.4995 C   0  0  0  0  0  0  0  0  0  0  0  0
  -19.4790   -7.4033  -26.7032 N   0  0  0  0  0  0  0  0  0  0  0  0
  -22.7980   -3.7134  -26.3013 N   0  0  0  0  0  0  0  0  0  0  0  0
  -19.3730   -6.0667  -26.6123 N   0  0  0  0  0  0  0  0  0  0  0  0
  -19.6458   -5.3471  -36.4369 N   0  0  0  0  0  0  0  0  0  0  0  0
  -20.8146   -4.6910  -31.4042 N   0  0  0  0  0  0  0  0  0  0  0  0
  -24.0659   -4.3543  -23.7226 N   0  0  0  0  0  0  0  0  0  0  0  0
  -18.8347   -7.5251  -36.5180 O   0  0  0  0  0  0  0  0  0  0  0  0
  -22.0979   -3.3099  -23.0802 O   0  0  0  0  0  0  0  0  0  0  0  0
  -19.1198   -6.4061  -34.5384 O   0  0  0  0  0  0  0  0  0  0  0  0
  -16.2155   -6.7804  -26.6070 H   0  0  0  0  0  0  0  0  0  0  0  0
  -23.8178   -2.8277  -28.5315 H   0  0  0  0  0  0  0  0  0  0  0  0
  -20.5556   -5.4178  -24.4186 H   0  0  0  0  0  0  0  0  0  0  0  0
  -17.9962   -8.8664  -26.7754 H   0  0  0  0  0  0  0  0  0  0  0  0
  -15.6551   -3.0894  -26.2580 H   0  0  0  0  0  0  0  0  0  0  0  0
  -15.6627   -4.7338  -25.4780 H   0  0  0  0  0  0  0  0  0  0  0  0
  -17.7406   -4.1298  -24.2175 H   0  0  0  0  0  0  0  0  0  0  0  0
  -17.7355   -2.4840  -24.9948 H   0  0  0  0  0  0  0  0  0  0  0  0
  -21.5767   -6.4293  -34.2159 H   0  0  0  0  0  0  0  0  0  0  0  0
  -21.9014   -4.7223  -33.9010 H   0  0  0  0  0  0  0  0  0  0  0  0
  -18.2282   -3.8521  -33.4478 H   0  0  0  0  0  0  0  0  0  0  0  0
  -18.4118   -5.3135  -32.4716 H   0  0  0  0  0  0  0  0  0  0  0  0
  -22.3055   -6.1014  -31.9101 H   0  0  0  0  0  0  0  0  0  0  0  0
  -20.6493   -6.7218  -31.9455 H   0  0  0  0  0  0  0  0  0  0  0  0
  -19.2079   -3.3376  -31.2346 H   0  0  0  0  0  0  0  0  0  0  0  0
  -20.3475   -2.9688  -32.5362 H   0  0  0  0  0  0  0  0  0  0  0  0
  -20.7410   -3.8013  -35.5836 H   0  0  0  0  0  0  0  0  0  0  0  0
  -18.9659   -3.6687  -35.4970 H   0  0  0  0  0  0  0  0  0  0  0  0
  -17.9078   -3.5201  -27.2723 H   0  0  0  0  0  0  0  0  0  0  0  0
  -22.7589   -2.0925  -31.3360 H   0  0  0  0  0  0  0  0  0  0  0  0
  -23.0610   -3.7183  -31.9969 H   0  0  0  0  0  0  0  0  0  0  0  0
  -24.2326   -2.9916  -30.8984 H   0  0  0  0  0  0  0  0  0  0  0  0
  -19.7137   -6.8668  -29.4223 H   0  0  0  0  0  0  0  0  0  0  0  0
  -18.9213   -5.4686  -30.1896 H   0  0  0  0  0  0  0  0  0  0  0  0
  -18.7158   -5.7476  -28.4612 H   0  0  0  0  0  0  0  0  0  0  0  0
  -24.6911   -4.9706  -21.8280 H   0  0  0  0  0  0  0  0  0  0  0  0
  -24.3896   -3.2090  -22.0074 H   0  0  0  0  0  0  0  0  0  0  0  0
  -25.8580   -3.9473  -22.7322 H   0  0  0  0  0  0  0  0  0  0  0  0
  -19.8478   -5.2020  -37.4201 H   0  0  0  0  0  0  0  0  0  0  0  0
  -24.5720   -4.8052  -24.4778 H   0  0  0  0  0  0  0  0  0  0  0  0
  1  4  1  0  0  0  0
  1 12  2  0  0  0  0
  2  6  2  0  0  0  0
  2  8  1  0  0  0  0
  3  9  1  0  0  0  0
  3 11  2  0  0  0  0
  4 27  2  0  0  0  0
  5  7  1  0  0  0  0
  5  8  1  0  0  0  0
  5  9  2  0  0  0  0
  6 10  1  0  0  0  0
  6 24  1  0  0  0  0
  7 10  2  0  0  0  0
  7 25  1  0  0  0  0
  8 28  2  0  0  0  0
  9 29  1  0  0  0  0
 10 31  1  0  0  0  0
 11 14  1  0  0  0  0
 11 28  1  0  0  0  0
 12 22  1  0  0  0  0
 12 29  1  0  0  0  0
 13 30  1  0  0  0  0
 13 33  2  0  0  0  0
 13 35  1  0  0  0  0
 14 32  1  0  0  0  0
 14 34  2  0  0  0  0
 15 16  1  0  0  0  0
 15 22  1  0  0  0  0
 16 22  1  0  0  0  0
 17 19  1  0  0  0  0
 17 23  1  0  0  0  0
 18 20  1  0  0  0  0
 18 23  1  0  0  0  0
 19 31  1  0  0  0  0
 20 31  1  0  0  0  0
 21 23  1  0  0  0  0
 21 30  1  0  0  0  0
 23 35  1  0  0  0  0
 26 32  1  0  0  0  0
 27 29  1  0  0  0  0
  1 36  1  0  0  0  0
  2 37  1  0  0  0  0
  3 38  1  0  0  0  0
  4 39  1  0  0  0  0
 15 40  1  0  0  0  0
 15 41  1  0  0  0  0
 16 42  1  0  0  0  0
 16 43  1  0  0  0  0
 17 44  1  0  0  0  0
 17 45  1  0  0  0  0
 18 46  1  0  0  0  0
 18 47  1  0  0  0  0
 19 48  1  0  0  0  0
 19 49  1  0  0  0  0
 20 50  1  0  0  0  0
 20 51  1  0  0  0  0
 21 52  1  0  0  0  0
 21 53  1  0  0  0  0
 22 54  1  0  0  0  0
 24 55  1  0  0  0  0
 24 56  1  0  0  0  0
 24 57  1  0  0  0  0
 25 58  1  0  0  0  0
 25 59  1  0  0  0  0
 25 60  1  0  0  0  0
 26 61  1  0  0  0  0
 26 62  1  0  0  0  0
 26 63  1  0  0  0  0
 30 64  1  0  0  0  0
 32 65  1  0  0  0  0
M  END
> <SMILES>
CNC(=O)c1cc(c2c(c(c(cc2n1)C)N1CCC2(CC1)CNC(=O)O2)C)-n1nccc1C1CC1

> <FORMATTED_ID>
H3D-012442

> <MOLFORMULA>
C26H30N6O3

> <Exact Mass>
474.24

> <XLogP>
2.42

> <TPSA_NOPS>
101.4

> <s_m_source_file>
ligprep_h3d.sdf

> <i_m_source_file_index>
1412

> <i_lp_mmshare_version>
55123

> <i_f3d_flags>
0

> <s_epik_input>
W0NIMl0xW0NIMl1bQ0hdMWMyW2NIXVtjSF1ubjItYzNbY0hdYyhDKD1PKVtOSF1bQ0gzXSluYyhjMzQpW2NIXWMoW0NIM10pYyhjNFtDSDNdKU4oW0NIMl1bQ0gyXTUpW0NIMl1bQ0gyXUM1NltDSDJdW05IXUMoPU8pTzY=

> <s_epik_cmdline>
J2VwaWtfcHl0aG9uJywgJy1waHQnLCAnMC41JywgJy1waCcsICc3LjUnLCAnLXRuJywgJzgnLCAnLW1hJywgJzUwMCcsICctaW1hZScsICc8aW5maWxlLm1hZT4nLCAnLW9tYWUnLCAnPG91dGZpbGUubWFlPic=

> <r_lp_tautomer_probability>
1

> <r_epik_Ionization_Penalty>
7.40366e-05

> <r_epik_Ionization_Penalty_Charging>
0

> <r_epik_Ionization_Penalty_Neutral>
7.40366e-05

> <r_epik_State_Penalty>
-0

> <r_epik_Charging_Adjusted_Penalty>
0

> <i_epik_Tot_Q>
0

> <i_epik_Tot_abs_Q>
0

> <s_epik_Chemistry_Notes>
This compound has an ester and may undergo hydrolysis at high or low pH.

> <s_lp_Force_Field>
S-OPLS

> <r_lp_Energy>
67.2269

> <b_lp_Chiralities_Consistent>
1

> <s_lp_Variant>
ligprep_h3d.sdf:1412-1

> <ROCS_ShapeQuery>
_7L13

> <ROCS_TanimotoCombo>
0.735 

> <ROCS_ShapeTanimoto>
0.622 

> <ROCS_ColorTanimoto>
0.113 

> <ROCS_RefTversky>
0.764 

> <ROCS_RefColorTversky>
0.223 

> <ROCS_RefTverskyCombo>
0.987 

> <ROCS_FitTversky>
0.770 

> <ROCS_FitColorTversky>
0.186 

> <ROCS_FitTverskyCombo>
0.956 

> <ROCS_ColorScore>
-2.030

> <ROCS_Overlap>
1268.086

> <ROCS_Rank>
652                 

$$$$
ligprep_h3d.sdf:1236_1565
  -OEChem-08212117123D

 63 66  0     0  0  0  0  0  0999 V2000
  -20.1055   -4.0094  -32.3458 C   0  0  0  0  0  0  0  0  0  0  0  0
  -20.4171   -6.3894  -32.0714 C   0  0  0  0  0  0  0  0  0  0  0  0
  -19.5688   -4.2259  -33.6149 C   0  0  0  0  0  0  0  0  0  0  0  0
  -19.8805   -6.6060  -33.3406 C   0  0  0  0  0  0  0  0  0  0  0  0
  -16.6482   -5.6525  -26.6203 C   0  0  0  0  0  0  0  0  0  0  0  0
  -23.0043   -4.4520  -28.8432 C   0  0  0  0  0  0  0  0  0  0  0  0
  -20.5968   -4.3764  -25.4567 C   0  0  0  0  0  0  0  0  0  0  0  0
  -16.6150   -4.2541  -26.7795 C   0  0  0  0  0  0  0  0  0  0  0  0
  -20.8221   -4.6232  -27.8511 C   0  0  0  0  0  0  0  0  0  0  0  0
  -20.5296   -5.0911  -31.5740 C   0  0  0  0  0  0  0  0  0  0  0  0
  -21.0886   -4.8654  -30.2515 C   0  0  0  0  0  0  0  0  0  0  0  0
  -19.4563   -5.5242  -34.1123 C   0  0  0  0  0  0  0  0  0  0  0  0
  -22.4569   -4.6699  -30.1100 C   0  0  0  0  0  0  0  0  0  0  0  0
  -20.2712   -4.8424  -29.1251 C   0  0  0  0  0  0  0  0  0  0  0  0
  -22.2104   -4.4241  -27.6999 C   0  0  0  0  0  0  0  0  0  0  0  0
  -20.0225   -4.5951  -26.7006 C   0  0  0  0  0  0  0  0  0  0  0  0
  -21.9637   -4.1920  -25.4085 C   0  0  0  0  0  0  0  0  0  0  0  0
  -17.9857   -5.9606  -26.5695 C   0  0  0  0  0  0  0  0  0  0  0  0
  -22.6286   -3.9599  -24.1378 C   0  0  0  0  0  0  0  0  0  0  0  0
  -20.4045   -7.3398  -38.4198 C   0  0  0  0  0  0  0  0  0  0  0  0
  -26.1012   -4.8562  -23.1378 C   0  0  0  0  0  0  0  0  0  0  0  0
  -23.3802   -4.6835  -31.2867 C   0  0  0  0  0  0  0  0  0  0  0  0
  -18.8021   -5.0614  -29.3559 C   0  0  0  0  0  0  0  0  0  0  0  0
  -18.6658   -7.2614  -26.4138 C   0  0  0  0  0  0  0  0  0  0  0  0
  -18.8823   -5.7558  -35.4691 C   0  0  0  0  0  0  0  0  0  0  0  0
  -19.3459   -6.6494  -37.5926 C   0  0  0  0  0  0  0  0  0  0  0  0
  -24.7518   -4.2291  -22.8300 C   0  0  0  0  0  0  0  0  0  0  0  0
  -17.8345   -3.7115  -26.8269 N   0  0  0  0  0  0  0  0  0  0  0  0
  -22.7706   -4.2116  -26.4941 N   0  0  0  0  0  0  0  0  0  0  0  0
  -18.6466   -4.7743  -26.6967 N   0  0  0  0  0  0  0  0  0  0  0  0
  -19.9800   -7.5991  -39.7047 N   0  0  0  0  0  0  0  0  0  0  0  0
  -23.9507   -4.4063  -24.0198 N   0  0  0  0  0  0  0  0  0  0  0  0
  -26.9460   -4.8004  -22.1998 O   0  5  0  0  0  0  0  0  0  0  0  0
  -22.0394   -3.3700  -23.2138 O   0  0  0  0  0  0  0  0  0  0  0  0
  -21.5169   -7.6342  -37.9922 O   0  0  0  0  0  0  0  0  0  0  0  0
  -26.2146   -5.3448  -24.2975 O   0  0  0  0  0  0  0  0  0  0  0  0
  -19.8480   -6.4065  -36.2859 O   0  0  0  0  0  0  0  0  0  0  0  0
  -20.1859   -2.9914  -31.9718 H   0  0  0  0  0  0  0  0  0  0  0  0
  -20.7439   -7.2429  -31.4822 H   0  0  0  0  0  0  0  0  0  0  0  0
  -19.2398   -3.3773  -34.2087 H   0  0  0  0  0  0  0  0  0  0  0  0
  -19.7971   -7.6209  -33.7205 H   0  0  0  0  0  0  0  0  0  0  0  0
  -15.8171   -6.3392  -26.5526 H   0  0  0  0  0  0  0  0  0  0  0  0
  -24.0789   -4.3002  -28.7471 H   0  0  0  0  0  0  0  0  0  0  0  0
  -20.0000   -4.3498  -24.5492 H   0  0  0  0  0  0  0  0  0  0  0  0
  -15.7528   -3.6081  -26.8632 H   0  0  0  0  0  0  0  0  0  0  0  0
  -23.4797   -3.6741  -31.7002 H   0  0  0  0  0  0  0  0  0  0  0  0
  -23.0071   -5.3502  -32.0727 H   0  0  0  0  0  0  0  0  0  0  0  0
  -24.3748   -5.0467  -31.0029 H   0  0  0  0  0  0  0  0  0  0  0  0
  -18.5729   -6.1282  -29.2958 H   0  0  0  0  0  0  0  0  0  0  0  0
  -18.5051   -4.6868  -30.3394 H   0  0  0  0  0  0  0  0  0  0  0  0
  -18.2094   -4.5257  -28.6090 H   0  0  0  0  0  0  0  0  0  0  0  0
  -18.8366   -7.4956  -25.3503 H   0  0  0  0  0  0  0  0  0  0  0  0
  -19.6447   -7.2800  -26.9226 H   0  0  0  0  0  0  0  0  0  0  0  0
  -18.0802   -8.0891  -26.8495 H   0  0  0  0  0  0  0  0  0  0  0  0
  -18.5959   -4.8104  -35.9500 H   0  0  0  0  0  0  0  0  0  0  0  0
  -17.9826   -6.3842  -35.4175 H   0  0  0  0  0  0  0  0  0  0  0  0
  -19.0814   -5.6958  -38.0598 H   0  0  0  0  0  0  0  0  0  0  0  0
  -18.4606   -7.2890  -37.5254 H   0  0  0  0  0  0  0  0  0  0  0  0
  -24.2776   -4.7206  -21.9749 H   0  0  0  0  0  0  0  0  0  0  0  0
  -24.8601   -3.1651  -22.5980 H   0  0  0  0  0  0  0  0  0  0  0  0
  -19.0491   -7.3352  -40.0102 H   0  0  0  0  0  0  0  0  0  0  0  0
  -20.5716   -8.0594  -40.3892 H   0  0  0  0  0  0  0  0  0  0  0  0
  -24.4056   -4.8251  -24.8244 H   0  0  0  0  0  0  0  0  0  0  0  0
  1  3  1  0  0  0  0
  1 10  2  0  0  0  0
  2  4  2  0  0  0  0
  2 10  1  0  0  0  0
  3 12  2  0  0  0  0
  4 12  1  0  0  0  0
  5  8  1  0  0  0  0
  5 18  2  0  0  0  0
  6 13  2  0  0  0  0
  6 15  1  0  0  0  0
  7 16  1  0  0  0  0
  7 17  2  0  0  0  0
  8 28  2  0  0  0  0
  9 14  1  0  0  0  0
  9 15  1  0  0  0  0
  9 16  2  0  0  0  0
 10 11  1  0  0  0  0
 11 13  1  0  0  0  0
 11 14  2  0  0  0  0
 12 25  1  0  0  0  0
 13 22  1  0  0  0  0
 14 23  1  0  0  0  0
 15 29  2  0  0  0  0
 16 30  1  0  0  0  0
 17 19  1  0  0  0  0
 17 29  1  0  0  0  0
 18 24  1  0  0  0  0
 18 30  1  0  0  0  0
 19 32  1  0  0  0  0
 19 34  2  0  0  0  0
 20 26  1  0  0  0  0
 20 31  1  0  0  0  0
 20 35  2  0  0  0  0
 21 27  1  0  0  0  0
 21 33  1  0  0  0  0
 21 36  2  0  0  0  0
 25 37  1  0  0  0  0
 26 37  1  0  0  0  0
 27 32  1  0  0  0  0
 28 30  1  0  0  0  0
  1 38  1  0  0  0  0
  2 39  1  0  0  0  0
  3 40  1  0  0  0  0
  4 41  1  0  0  0  0
  5 42  1  0  0  0  0
  6 43  1  0  0  0  0
  7 44  1  0  0  0  0
  8 45  1  0  0  0  0
 22 46  1  0  0  0  0
 22 47  1  0  0  0  0
 22 48  1  0  0  0  0
 23 49  1  0  0  0  0
 23 50  1  0  0  0  0
 23 51  1  0  0  0  0
 24 52  1  0  0  0  0
 24 53  1  0  0  0  0
 24 54  1  0  0  0  0
 25 55  1  0  0  0  0
 25 56  1  0  0  0  0
 26 57  1  0  0  0  0
 26 58  1  0  0  0  0
 27 59  1  0  0  0  0
 27 60  1  0  0  0  0
 31 61  1  0  0  0  0
 31 62  1  0  0  0  0
 32 63  1  0  0  0  0
M  CHG  1  33  -1
M  END
> <SMILES>
Cc1cc2nc(cc(c2c(c1-c1ccc(cc1)COCC(=O)N)C)-n1nccc1C)C(=O)NCC(=O)O

> <FORMATTED_ID>
H3D-008438

> <MOLFORMULA>
C27H27N5O5

> <Exact Mass>
501.2

> <XLogP>
-0.01

> <TPSA_NOPS>
149.4

> <s_m_source_file>
ligprep_h3d.sdf

> <i_m_source_file_index>
1236

> <i_lp_mmshare_version>
55123

> <i_f3d_flags>
0

> <s_epik_input>
Tz1DKFtOSDJdKVtDSDJdT1tDSDJdYyhbY0hdW2NIXTEpW2NIXVtjSF1jMS1jKGMoW0NIM10pW2NIXTIpYyhbQ0gzXSljKGMyMyljKC1uNG5bY0hdW2NIXWM0W0NIM10pW2NIXWMobjMpQyg9TylbTkhdW0NIMl1DKD1PKVtPSF0=

> <s_epik_cmdline>
J2VwaWtfcHl0aG9uJywgJy1waHQnLCAnMC41JywgJy1waCcsICc3LjUnLCAnLXRuJywgJzgnLCAnLW1hJywgJzUwMCcsICctaW1hZScsICc8aW5maWxlLm1hZT4nLCAnLW9tYWUnLCAnPG91dGZpbGUubWFlPic=

> <r_lp_tautomer_probability>
1

> <r_epik_Ionization_Penalty>
9.18782e-05

> <r_epik_Ionization_Penalty_Charging>
7.49142e-05

> <r_epik_Ionization_Penalty_Neutral>
1.6964e-05

> <r_epik_State_Penalty>
-0

> <r_epik_Charging_Adjusted_Penalty>
7.49142e-05

> <i_epik_Tot_Q>
-1

> <i_epik_Tot_abs_Q>
1

> <s_lp_Force_Field>
S-OPLS

> <r_lp_Energy>
57.7406

> <b_lp_Chiralities_Consistent>
1

> <s_lp_Variant>
ligprep_h3d.sdf:1236-1

> <ROCS_ShapeQuery>
_7L13

> <ROCS_TanimotoCombo>
0.754 

> <ROCS_ShapeTanimoto>
0.605 

> <ROCS_ColorTanimoto>
0.148 

> <ROCS_RefTversky>
0.764 

> <ROCS_RefColorTversky>
0.322 

> <ROCS_RefTverskyCombo>
1.085 

> <ROCS_FitTversky>
0.744 

> <ROCS_FitColorTversky>
0.216 

> <ROCS_FitTverskyCombo>
0.960 

> <ROCS_ColorScore>
-2.975

> <ROCS_Overlap>
1270.359

> <ROCS_Rank>
653                 

$$$$
ligprep_h3d.sdf:1345_59
  -OEChem-08212117123D

 52 58  0     1  0  0  0  0  0999 V2000
  -20.6737   -4.6689  -29.5924 C   0  0  0  0  0  0  0  0  0  0  0  0
  -21.5834   -4.1675  -30.5256 C   0  0  0  0  0  0  0  0  0  0  0  0
  -20.9955   -4.6006  -28.2137 C   0  0  0  0  0  0  0  0  0  0  0  0
  -22.2205   -4.0509  -27.7521 C   0  0  0  0  0  0  0  0  0  0  0  0
  -22.7675   -3.6349  -30.0663 C   0  0  0  0  0  0  0  0  0  0  0  0
  -23.1260   -3.5579  -28.7204 C   0  0  0  0  0  0  0  0  0  0  0  0
  -21.6741   -4.0319  -31.9235 C   0  0  0  0  0  0  0  0  0  0  0  0
  -20.6587   -4.4514  -32.9063 C   0  0  0  0  0  0  0  0  0  0  0  0
  -19.5452   -5.5834  -34.2828 C   0  0  0  0  0  0  0  0  0  0  0  0
  -19.4133   -5.8185  -24.9722 C   0  0  0  0  0  0  0  0  0  0  0  0
  -19.5980   -3.3376  -25.6167 C   0  0  0  0  0  0  0  0  0  0  0  0
  -17.4281   -4.3281  -24.9213 C   0  0  0  0  0  0  0  0  0  0  0  0
  -24.2534   -5.3919  -23.2668 C   0  0  0  0  0  0  0  0  0  0  0  0
  -19.9722   -5.1749  -27.2593 C   0  0  0  0  0  0  0  0  0  0  0  0
  -23.4483   -3.0080  -25.8339 C   0  0  0  0  0  0  0  0  0  0  0  0
  -21.9906   -4.5182  -23.9846 C   0  0  0  0  0  0  0  0  0  0  0  0
  -25.4755   -4.1997  -24.7730 C   0  0  0  0  0  0  0  0  0  0  0  0
  -24.1607   -3.4793  -24.5676 C   0  0  1  0  0  0  0  0  0  0  0  0
  -21.6877   -4.8354  -25.4618 C   0  0  2  0  0  0  0  0  0  0  0  0
  -20.1720   -4.7547  -25.7835 C   0  0  0  0  0  0  0  0  0  0  0  0
  -19.1944   -6.7667  -35.0781 C   0  0  0  0  0  0  0  0  0  0  0  0
  -22.8215   -3.4621  -32.3039 N   0  0  0  0  0  0  0  0  0  0  0  0
  -19.6920   -3.6656  -33.3194 N   0  0  0  0  0  0  0  0  0  0  0  0
  -18.9596   -4.4103  -34.2250 N   0  0  0  0  0  0  0  0  0  0  0  0
  -18.0766   -5.5404  -24.7359 N   0  0  0  0  0  0  0  0  0  0  0  0
  -18.2406   -3.2835  -25.3381 N   0  0  0  0  0  0  0  0  0  0  0  0
  -22.5150   -4.0116  -26.3816 N   0  0  3  0  0  0  0  0  0  0  0  0
  -23.4238   -4.4513  -23.8296 N   0  0  0  0  0  0  0  0  0  0  0  0
  -19.9236   -6.8843  -24.6249 O   0  0  0  0  0  0  0  0  0  0  0  0
  -20.2583   -2.3128  -25.7810 O   0  0  0  0  0  0  0  0  0  0  0  0
  -16.2274   -4.1787  -24.6888 O   0  0  0  0  0  0  0  0  0  0  0  0
  -23.9468   -6.3297  -22.5447 O   0  0  0  0  0  0  0  0  0  0  0  0
  -23.5136   -3.2138  -31.1243 O   0  0  0  0  0  0  0  0  0  0  0  0
  -20.6341   -5.6888  -33.4729 O   0  0  0  0  0  0  0  0  0  0  0  0
  -25.5408   -5.1372  -23.6783 O   0  0  0  0  0  0  0  0  0  0  0  0
  -24.3218   -3.0360  -28.4303 F   0  0  0  0  0  0  0  0  0  0  0  0
  -19.7344   -5.1096  -29.9173 H   0  0  0  0  0  0  0  0  0  0  0  0
  -19.9914   -6.2745  -27.3190 H   0  0  0  0  0  0  0  0  0  0  0  0
  -18.9826   -4.8638  -27.6253 H   0  0  0  0  0  0  0  0  0  0  0  0
  -24.2166   -2.8091  -26.6241 H   0  0  0  0  0  0  0  0  0  0  0  0
  -23.0231   -1.9858  -25.7047 H   0  0  0  0  0  0  0  0  0  0  0  0
  -21.6035   -5.2858  -23.3190 H   0  0  0  0  0  0  0  0  0  0  0  0
  -21.5830   -3.5550  -23.6839 H   0  0  0  0  0  0  0  0  0  0  0  0
  -26.3286   -3.5202  -24.7097 H   0  0  0  0  0  0  0  0  0  0  0  0
  -25.5255   -4.7638  -25.7086 H   0  0  0  0  0  0  0  0  0  0  0  0
  -24.3265   -2.6206  -23.8824 H   0  0  0  0  0  0  0  0  0  0  0  0
  -21.9793   -5.8960  -25.6098 H   0  0  0  0  0  0  0  0  0  0  0  0
  -18.4987   -7.4298  -34.5325 H   0  0  0  0  0  0  0  0  0  0  0  0
  -20.0808   -7.3713  -35.3480 H   0  0  0  0  0  0  0  0  0  0  0  0
  -18.7112   -6.5016  -36.0376 H   0  0  0  0  0  0  0  0  0  0  0  0
  -17.5061   -6.3126  -24.3870 H   0  0  0  0  0  0  0  0  0  0  0  0
  -17.7897   -2.3742  -25.4525 H   0  0  0  0  0  0  0  0  0  0  0  0
  1  2  2  0  0  0  0
  1  3  1  0  0  0  0
  2  5  1  0  0  0  0
  2  7  1  0  0  0  0
  3  4  2  0  0  0  0
  3 14  1  0  0  0  0
  4  6  1  0  0  0  0
  4 27  1  0  0  0  0
  5  6  2  0  0  0  0
  5 33  1  0  0  0  0
  6 36  1  0  0  0  0
  7  8  1  0  0  0  0
  7 22  2  0  0  0  0
  8 23  2  0  0  0  0
  8 34  1  0  0  0  0
  9 21  1  0  0  0  0
  9 24  2  0  0  0  0
  9 34  1  0  0  0  0
 10 20  1  0  0  0  0
 10 25  1  0  0  0  0
 10 29  2  0  0  0  0
 11 20  1  0  0  0  0
 11 26  1  0  0  0  0
 11 30  2  0  0  0  0
 12 25  1  0  0  0  0
 12 26  1  0  0  0  0
 12 31  2  0  0  0  0
 13 28  1  0  0  0  0
 13 32  2  0  0  0  0
 13 35  1  0  0  0  0
 14 20  1  0  0  0  0
 15 18  1  0  0  0  0
 15 27  1  0  0  0  0
 16 19  1  0  0  0  0
 16 28  1  0  0  0  0
 17 18  1  0  0  0  0
 17 35  1  0  0  0  0
 18 28  1  0  0  0  0
 19 20  1  0  0  0  0
 19 27  1  0  0  0  0
 22 33  1  0  0  0  0
 23 24  1  0  0  0  0
  1 37  1  0  0  0  0
 14 38  1  0  0  0  0
 14 39  1  0  0  0  0
 15 40  1  0  0  0  0
 15 41  1  0  0  0  0
 16 42  1  0  0  0  0
 16 43  1  0  0  0  0
 17 44  1  0  0  0  0
 17 45  1  0  0  0  0
 18 46  1  0  0  0  0
 19 47  1  0  0  0  0
 21 48  1  0  0  0  0
 21 49  1  0  0  0  0
 21 50  1  0  0  0  0
 25 51  1  0  0  0  0
 26 52  1  0  0  0  0
M  END
> <SMILES>
Cc1nnc(o1)-c1noc2c(c3c(cc12)CC1([C@H]2CN4[C@H](COC4=O)CN23)C(=O)NC(=O)NC1=O)F

> <FORMATTED_ID>
H3D-009154

> <MOLFORMULA>
C21H16FN7O7

> <Exact Mass>
497.11

> <XLogP>
-0.13

> <TPSA_NOPS>
173.6

> <s_m_source_file>
ligprep_h3d.sdf

> <i_m_source_file_index>
1345

> <i_lp_mmshare_version>
55123

> <i_f3d_flags>
0

> <s_epik_input>
W0NIM11jMW5uYyhvMSktYzJub2MoYzNGKWMyW2NIXWMoW0NIMl00KWMzTihbQ0gyXVtDQEBIXTVOKFtDSDJdNilDKD1PKU9bQ0gyXTUpW0NASF02QzQ3Qyg9TylbTkhdQyg9TylbTkhdQzc9Tw==

> <s_epik_cmdline>
J2VwaWtfcHl0aG9uJywgJy1waHQnLCAnMC41JywgJy1waCcsICc3LjUnLCAnLXRuJywgJzgnLCAnLW1hJywgJzUwMCcsICctaW1hZScsICc8aW5maWxlLm1hZT4nLCAnLW9tYWUnLCAnPG91dGZpbGUubWFlPic=

> <r_lp_tautomer_probability>
1

> <r_epik_Ionization_Penalty>
0.379426

> <r_epik_Ionization_Penalty_Charging>
0

> <r_epik_Ionization_Penalty_Neutral>
0.379426

> <r_epik_State_Penalty>
0.377389

> <r_epik_Charging_Adjusted_Penalty>
0.377389

> <i_epik_Tot_Q>
0

> <i_epik_Tot_abs_Q>
0

> <s_epik_Chemistry_Notes>
This compound has an ester and may undergo hydrolysis at high or low pH.

> <s_lp_Force_Field>
S-OPLS

> <r_lp_Energy>
38.2154

> <b_lp_Chiralities_Consistent>
1

> <s_lp_Variant>
ligprep_h3d.sdf:1345-1

> <ROCS_ShapeQuery>
_7L13

> <ROCS_TanimotoCombo>
0.727 

> <ROCS_ShapeTanimoto>
0.594 

> <ROCS_ColorTanimoto>
0.133 

> <ROCS_RefTversky>
0.764 

> <ROCS_RefColorTversky>
0.318 

> <ROCS_RefTverskyCombo>
1.082 

> <ROCS_FitTversky>
0.727 

> <ROCS_FitColorTversky>
0.186 

> <ROCS_FitTverskyCombo>
0.913 

> <ROCS_ColorScore>
-2.979

> <ROCS_Overlap>
1271.955

> <ROCS_Rank>
654                 

$$$$
ligprep_h3d.sdf:5073_1783
  -OEChem-08212117123D

 62 66  0     0  0  0  0  0  0999 V2000
  -16.0534   -3.2251  -25.9417 C   0  0  0  0  0  0  0  0  0  0  0  0
  -19.3057   -5.5432  -34.8178 C   0  0  0  0  0  0  0  0  0  0  0  0
  -20.3050   -6.4644  -34.5044 C   0  0  0  0  0  0  0  0  0  0  0  0
  -19.2182   -4.3424  -34.1134 C   0  0  0  0  0  0  0  0  0  0  0  0
  -21.2170   -6.1848  -33.4866 C   0  0  0  0  0  0  0  0  0  0  0  0
  -20.1301   -4.0627  -33.0957 C   0  0  0  0  0  0  0  0  0  0  0  0
  -18.7565   -6.3333  -25.4100 C   0  0  0  0  0  0  0  0  0  0  0  0
  -18.3663   -4.0311  -25.9863 C   0  0  0  0  0  0  0  0  0  0  0  0
  -23.6526   -3.9121  -27.7587 C   0  0  0  0  0  0  0  0  0  0  0  0
  -20.9638   -4.3847  -28.4478 C   0  0  0  0  0  0  0  0  0  0  0  0
  -17.3899   -6.4614  -25.2208 C   0  0  0  0  0  0  0  0  0  0  0  0
  -17.0172   -4.2622  -25.7711 C   0  0  0  0  0  0  0  0  0  0  0  0
  -22.7248   -4.3028  -26.8005 C   0  0  0  0  0  0  0  0  0  0  0  0
  -21.1296   -4.9839  -32.7823 C   0  0  0  0  0  0  0  0  0  0  0  0
  -19.2459   -5.0917  -25.8001 C   0  0  0  0  0  0  0  0  0  0  0  0
  -21.3794   -4.5239  -27.1294 C   0  0  0  0  0  0  0  0  0  0  0  0
  -23.2275   -3.7604  -29.0769 C   0  0  0  0  0  0  0  0  0  0  0  0
  -21.8923   -3.9995  -29.4199 C   0  0  0  0  0  0  0  0  0  0  0  0
  -23.0681   -3.1537  -24.6034 C   0  0  0  0  0  0  0  0  0  0  0  0
  -24.1590   -5.3966  -25.0099 C   0  0  0  0  0  0  0  0  0  0  0  0
  -21.6030   -5.2381  -24.9553 C   0  0  0  0  0  0  0  0  0  0  0  0
  -23.3668   -3.2861  -23.1134 C   0  0  0  0  0  0  0  0  0  0  0  0
  -24.4059   -5.5348  -23.5132 C   0  0  0  0  0  0  0  0  0  0  0  0
  -22.9381   -4.5137  -25.3213 C   0  0  0  0  0  0  0  0  0  0  0  0
  -24.9694   -4.2384  -21.4603 C   0  0  0  0  0  0  0  0  0  0  0  0
  -24.2760   -1.9786  -30.2525 C   0  0  0  0  0  0  0  0  0  0  0  0
  -22.1104   -4.6824  -31.6875 C   0  0  0  0  0  0  0  0  0  0  0  0
  -15.2690   -2.3812  -26.0806 N   0  0  0  0  0  0  0  0  0  0  0  0
  -16.5045   -5.4542  -25.3919 N   0  0  0  0  0  0  0  0  0  0  0  0
  -20.6173   -4.9116  -26.0041 N   0  0  0  0  0  0  0  0  0  0  0  0
  -24.5779   -4.1617  -22.9107 N   0  3  0  0  0  0  0  0  0  0  0  0
  -24.1259   -3.3788  -30.0282 O   0  0  0  0  0  0  0  0  0  0  0  0
  -21.4795   -3.8564  -30.7120 O   0  0  0  0  0  0  0  0  0  0  0  0
  -18.5948   -5.7616  -35.6094 H   0  0  0  0  0  0  0  0  0  0  0  0
  -20.3726   -7.3999  -35.0520 H   0  0  0  0  0  0  0  0  0  0  0  0
  -18.4396   -3.6254  -34.3564 H   0  0  0  0  0  0  0  0  0  0  0  0
  -21.9925   -6.9084  -33.2494 H   0  0  0  0  0  0  0  0  0  0  0  0
  -20.0544   -3.1246  -32.5523 H   0  0  0  0  0  0  0  0  0  0  0  0
  -19.4153   -7.1815  -25.2573 H   0  0  0  0  0  0  0  0  0  0  0  0
  -18.7302   -3.0541  -26.2910 H   0  0  0  0  0  0  0  0  0  0  0  0
  -24.6867   -3.7228  -27.4892 H   0  0  0  0  0  0  0  0  0  0  0  0
  -19.9295   -4.5660  -28.7257 H   0  0  0  0  0  0  0  0  0  0  0  0
  -16.9565   -7.4091  -24.9186 H   0  0  0  0  0  0  0  0  0  0  0  0
  -23.8732   -2.5667  -25.0671 H   0  0  0  0  0  0  0  0  0  0  0  0
  -22.1537   -2.5598  -24.7310 H   0  0  0  0  0  0  0  0  0  0  0  0
  -24.0375   -6.3941  -25.4512 H   0  0  0  0  0  0  0  0  0  0  0  0
  -25.0613   -4.9749  -25.4722 H   0  0  0  0  0  0  0  0  0  0  0  0
  -21.2254   -4.9483  -23.9686 H   0  0  0  0  0  0  0  0  0  0  0  0
  -21.7467   -6.3278  -24.9419 H   0  0  0  0  0  0  0  0  0  0  0  0
  -22.5359   -3.7341  -22.5590 H   0  0  0  0  0  0  0  0  0  0  0  0
  -23.5967   -2.3055  -22.6832 H   0  0  0  0  0  0  0  0  0  0  0  0
  -25.3305   -6.0917  -23.3285 H   0  0  0  0  0  0  0  0  0  0  0  0
  -23.5751   -6.0270  -22.9963 H   0  0  0  0  0  0  0  0  0  0  0  0
  -24.1500   -4.7138  -20.9180 H   0  0  0  0  0  0  0  0  0  0  0  0
  -25.1366   -3.2197  -21.1051 H   0  0  0  0  0  0  0  0  0  0  0  0
  -25.8824   -4.8328  -21.3917 H   0  0  0  0  0  0  0  0  0  0  0  0
  -25.0212   -1.8118  -31.0341 H   0  0  0  0  0  0  0  0  0  0  0  0
  -23.3157   -1.5518  -30.5527 H   0  0  0  0  0  0  0  0  0  0  0  0
  -24.6099   -1.5041  -29.3267 H   0  0  0  0  0  0  0  0  0  0  0  0
  -22.9896   -4.1616  -32.0817 H   0  0  0  0  0  0  0  0  0  0  0  0
  -22.4531   -5.6061  -31.2087 H   0  0  0  0  0  0  0  0  0  0  0  0
  -25.3641   -3.7113  -23.3991 H   0  0  0  0  0  0  0  0  0  0  0  0
  1 12  1  0  0  0  0
  1 28  3  0  0  0  0
  2  3  2  0  0  0  0
  2  4  1  0  0  0  0
  3  5  1  0  0  0  0
  4  6  2  0  0  0  0
  5 14  2  0  0  0  0
  6 14  1  0  0  0  0
  7 11  1  0  0  0  0
  7 15  2  0  0  0  0
  8 12  2  0  0  0  0
  8 15  1  0  0  0  0
  9 13  1  0  0  0  0
  9 17  2  0  0  0  0
 10 16  1  0  0  0  0
 10 18  2  0  0  0  0
 11 29  2  0  0  0  0
 12 29  1  0  0  0  0
 13 16  2  0  0  0  0
 13 24  1  0  0  0  0
 14 27  1  0  0  0  0
 15 30  1  0  0  0  0
 16 30  1  0  0  0  0
 17 18  1  0  0  0  0
 17 32  1  0  0  0  0
 18 33  1  0  0  0  0
 19 22  1  0  0  0  0
 19 24  1  0  0  0  0
 20 23  1  0  0  0  0
 20 24  1  0  0  0  0
 21 24  1  0  0  0  0
 21 30  1  0  0  0  0
 22 31  1  0  0  0  0
 23 31  1  0  0  0  0
 25 31  1  0  0  0  0
 26 32  1  0  0  0  0
 27 33  1  0  0  0  0
  2 34  1  0  0  0  0
  3 35  1  0  0  0  0
  4 36  1  0  0  0  0
  5 37  1  0  0  0  0
  6 38  1  0  0  0  0
  7 39  1  0  0  0  0
  8 40  1  0  0  0  0
  9 41  1  0  0  0  0
 10 42  1  0  0  0  0
 11 43  1  0  0  0  0
 19 44  1  0  0  0  0
 19 45  1  0  0  0  0
 20 46  1  0  0  0  0
 20 47  1  0  0  0  0
 21 48  1  0  0  0  0
 21 49  1  0  0  0  0
 22 50  1  0  0  0  0
 22 51  1  0  0  0  0
 23 52  1  0  0  0  0
 23 53  1  0  0  0  0
 25 54  1  0  0  0  0
 25 55  1  0  0  0  0
 25 56  1  0  0  0  0
 26 57  1  0  0  0  0
 26 58  1  0  0  0  0
 26 59  1  0  0  0  0
 27 60  1  0  0  0  0
 27 61  1  0  0  0  0
 31 62  1  0  0  0  0
M  CHG  1  31   1
M  END
> <SMILES>
COc1cc2c(cc1OCc1ccccc1)N(CC12CCN(C)CC1)c1ccnc(c1)C#N

> <FORMATTED_ID>
H3D-012427

> <MOLFORMULA>
C27H28N4O2

> <Exact Mass>
440.22

> <XLogP>
4.53

> <TPSA_NOPS>
61.6

> <s_m_source_file>
ligprep_h3d.sdf

> <i_m_source_file_index>
5073

> <i_lp_mmshare_version>
55123

> <i_f3d_flags>
0

> <s_epik_input>
W2NIXTFbY0hdW2NIXVtjSF1bY0hdYzFbQ0gyXU9jKGMoW2NIXTIpT1tDSDNdKVtjSF1jKGMyQzM0W0NIMl1bQ0gyXU4oW0NIM10pW0NIMl1bQ0gyXTQpTihbQ0gyXTMpYzVbY0hdW2NIXW5jKFtjSF01KUMjTg==

> <s_epik_cmdline>
J2VwaWtfcHl0aG9uJywgJy1waHQnLCAnMC41JywgJy1waCcsICc3LjUnLCAnLXRuJywgJzgnLCAnLW1hJywgJzUwMCcsICctaW1hZScsICc8aW5maWxlLm1hZT4nLCAnLW9tYWUnLCAnPG91dGZpbGUubWFlPic=

> <r_lp_tautomer_probability>
1

> <r_epik_Ionization_Penalty>
0.00689658

> <r_epik_Ionization_Penalty_Charging>
0.00689193

> <r_epik_Ionization_Penalty_Neutral>
4.64674e-06

> <r_epik_State_Penalty>
-0

> <r_epik_Charging_Adjusted_Penalty>
0.00689193

> <i_epik_Tot_Q>
1

> <i_epik_Tot_abs_Q>
1

> <s_lp_Force_Field>
S-OPLS

> <r_lp_Energy>
71.992

> <b_lp_Chiralities_Consistent>
1

> <s_lp_Variant>
ligprep_h3d.sdf:5073-1

> <ROCS_ShapeQuery>
_7L13

> <ROCS_TanimotoCombo>
0.764 

> <ROCS_ShapeTanimoto>
0.661 

> <ROCS_ColorTanimoto>
0.103 

> <ROCS_RefTversky>
0.764 

> <ROCS_RefColorTversky>
0.205 

> <ROCS_RefTverskyCombo>
0.969 

> <ROCS_FitTversky>
0.831 

> <ROCS_FitColorTversky>
0.171 

> <ROCS_FitTverskyCombo>
1.002 

> <ROCS_ColorScore>
-1.864

> <ROCS_Overlap>
1262.657

> <ROCS_Rank>
655                 

$$$$
ligprep_h3d.sdf:817_63
  -OEChem-08212117123D

 57 62  0     1  0  0  0  0  0999 V2000
  -19.5338   -5.8456  -35.7563 C   0  0  0  0  0  0  0  0  0  0  0  0
  -21.0081   -5.1784  -29.4911 C   0  0  0  0  0  0  0  0  0  0  0  0
  -21.7584   -4.4012  -30.3761 C   0  0  0  0  0  0  0  0  0  0  0  0
  -21.1177   -4.9258  -28.1025 C   0  0  0  0  0  0  0  0  0  0  0  0
  -21.9881   -3.9429  -27.5745 C   0  0  0  0  0  0  0  0  0  0  0  0
  -22.5785   -3.4233  -29.8576 C   0  0  0  0  0  0  0  0  0  0  0  0
  -22.7222   -3.1589  -28.4954 C   0  0  0  0  0  0  0  0  0  0  0  0
  -21.9482   -4.2955  -31.7665 C   0  0  0  0  0  0  0  0  0  0  0  0
  -18.9031   -3.8728  -26.2313 C   0  0  0  0  0  0  0  0  0  0  0  0
  -19.2786   -6.0692  -24.9920 C   0  0  0  0  0  0  0  0  0  0  0  0
  -17.0828   -5.2491  -25.8152 C   0  0  0  0  0  0  0  0  0  0  0  0
  -20.2840   -5.7669  -27.1735 C   0  0  0  0  0  0  0  0  0  0  0  0
  -19.9559   -6.8530  -33.5214 C   0  0  0  0  0  0  0  0  0  0  0  0
  -20.8745   -6.4827  -32.3588 C   0  0  0  0  0  0  0  0  0  0  0  0
  -20.9173   -4.7195  -34.0150 C   0  0  0  0  0  0  0  0  0  0  0  0
  -23.0374   -2.7739  -25.6469 C   0  0  0  0  0  0  0  0  0  0  0  0
  -20.5120   -6.0372  -34.6833 C   0  0  1  0  0  0  0  0  0  0  0  0
  -21.2164   -4.4694  -25.2267 C   0  0  2  0  0  0  0  0  0  0  0  0
  -23.4134   -3.0774  -24.1937 C   0  0  1  0  0  0  0  0  0  0  0  0
  -21.0439   -3.5297  -23.9973 C   0  0  2  0  0  0  0  0  0  0  0  0
  -19.9003   -5.0025  -25.8825 C   0  0  2  0  0  0  0  0  0  0  0  0
  -24.4165   -4.2231  -24.0735 C   0  0  0  0  0  0  0  0  0  0  0  0
  -20.0924   -4.0090  -22.9083 C   0  0  0  0  0  0  0  0  0  0  0  0
  -18.7588   -5.6938  -36.6064 N   0  0  0  0  0  0  0  0  0  0  0  0
  -22.8137   -3.3293  -32.0880 N   0  0  0  0  0  0  0  0  0  0  0  0
  -17.6469   -4.2439  -26.4859 N   0  5  0  0  0  0  0  0  0  0  0  0
  -17.8991   -6.0787  -25.0485 N   0  0  0  0  0  0  0  0  0  0  0  0
  -22.0947   -3.7578  -26.1939 N   0  0  3  0  0  0  0  0  0  0  0  0
  -21.2902   -5.1154  -32.6585 N   0  0  0  0  0  0  0  0  0  0  0  0
  -19.2927   -2.7141  -26.3753 O   0  0  0  0  0  0  0  0  0  0  0  0
  -19.9277   -6.8910  -24.3487 O   0  0  0  0  0  0  0  0  0  0  0  0
  -15.8729   -5.4879  -25.8591 O   0  0  0  0  0  0  0  0  0  0  0  0
  -23.2100   -2.7768  -30.8756 O   0  0  0  0  0  0  0  0  0  0  0  0
  -22.3063   -3.3539  -23.3407 O   0  0  0  0  0  0  0  0  0  0  0  0
  -23.4705   -2.1095  -28.1348 F   0  0  0  0  0  0  0  0  0  0  0  0
  -20.3454   -5.9555  -29.8612 H   0  0  0  0  0  0  0  0  0  0  0  0
  -20.8618   -6.6702  -26.9340 H   0  0  0  0  0  0  0  0  0  0  0  0
  -19.3788   -6.1065  -27.6939 H   0  0  0  0  0  0  0  0  0  0  0  0
  -18.9229   -6.5632  -33.2893 H   0  0  0  0  0  0  0  0  0  0  0  0
  -19.9647   -7.9286  -33.7256 H   0  0  0  0  0  0  0  0  0  0  0  0
  -21.7533   -7.1382  -32.3335 H   0  0  0  0  0  0  0  0  0  0  0  0
  -20.3499   -6.5569  -31.3994 H   0  0  0  0  0  0  0  0  0  0  0  0
  -20.0862   -4.0030  -33.9737 H   0  0  0  0  0  0  0  0  0  0  0  0
  -21.7535   -4.2476  -34.5454 H   0  0  0  0  0  0  0  0  0  0  0  0
  -23.9487   -2.8044  -26.2790 H   0  0  0  0  0  0  0  0  0  0  0  0
  -22.7075   -1.7244  -25.6932 H   0  0  0  0  0  0  0  0  0  0  0  0
  -21.4077   -6.5330  -35.0792 H   0  0  0  0  0  0  0  0  0  0  0  0
  -21.8063   -5.3372  -24.8903 H   0  0  0  0  0  0  0  0  0  0  0  0
  -23.9462   -2.1607  -23.7615 H   0  0  0  0  0  0  0  0  0  0  0  0
  -20.6958   -2.5290  -24.3109 H   0  0  0  0  0  0  0  0  0  0  0  0
  -23.9821   -5.1422  -24.4673 H   0  0  0  0  0  0  0  0  0  0  0  0
  -25.3195   -3.9890  -24.6375 H   0  0  0  0  0  0  0  0  0  0  0  0
  -24.6828   -4.3777  -23.0277 H   0  0  0  0  0  0  0  0  0  0  0  0
  -20.3914   -4.9979  -22.5606 H   0  0  0  0  0  0  0  0  0  0  0  0
  -20.1110   -3.3174  -22.0660 H   0  0  0  0  0  0  0  0  0  0  0  0
  -19.0761   -4.0637  -23.2988 H   0  0  0  0  0  0  0  0  0  0  0  0
  -17.4275   -6.7656  -24.4677 H   0  0  0  0  0  0  0  0  0  0  0  0
  1 17  1  0  0  0  0
  1 24  3  0  0  0  0
  2  3  2  0  0  0  0
  2  4  1  0  0  0  0
  3  6  1  0  0  0  0
  3  8  1  0  0  0  0
  4  5  2  0  0  0  0
  4 12  1  0  0  0  0
  5  7  1  0  0  0  0
  5 28  1  0  0  0  0
  6  7  2  0  0  0  0
  6 33  1  0  0  0  0
  7 35  1  0  0  0  0
  8 25  2  0  0  0  0
  8 29  1  0  0  0  0
  9 21  1  0  0  0  0
  9 26  1  0  0  0  0
  9 30  2  0  0  0  0
 10 21  1  0  0  0  0
 10 27  1  0  0  0  0
 10 31  2  0  0  0  0
 11 26  1  0  0  0  0
 11 27  1  0  0  0  0
 11 32  2  0  0  0  0
 12 21  1  0  0  0  0
 13 14  1  0  0  0  0
 13 17  1  0  0  0  0
 14 29  1  0  0  0  0
 15 17  1  0  0  0  0
 15 29  1  0  0  0  0
 16 19  1  0  0  0  0
 16 28  1  0  0  0  0
 18 20  1  0  0  0  0
 18 21  1  0  0  0  0
 18 28  1  0  0  0  0
 19 22  1  0  0  0  0
 19 34  1  0  0  0  0
 20 23  1  0  0  0  0
 20 34  1  0  0  0  0
 25 33  1  0  0  0  0
  2 36  1  0  0  0  0
 12 37  1  0  0  0  0
 12 38  1  0  0  0  0
 13 39  1  0  0  0  0
 13 40  1  0  0  0  0
 14 41  1  0  0  0  0
 14 42  1  0  0  0  0
 15 43  1  0  0  0  0
 15 44  1  0  0  0  0
 16 45  1  0  0  0  0
 16 46  1  0  0  0  0
 17 47  1  0  0  0  0
 18 48  1  0  0  0  0
 19 49  1  0  0  0  0
 20 50  1  0  0  0  0
 22 51  1  0  0  0  0
 22 52  1  0  0  0  0
 22 53  1  0  0  0  0
 23 54  1  0  0  0  0
 23 55  1  0  0  0  0
 23 56  1  0  0  0  0
 27 57  1  0  0  0  0
M  CHG  1  26  -1
M  END
> <SMILES>
C[C@@H]1CN2[C@H]([C@H](C)O1)C1(Cc3cc4c(noc4c(c32)F)N2CC[C@@H](C2)C#N)C(=O)NC(=O)NC1=O

> <FORMATTED_ID>
H3D-005496

> <MOLFORMULA>
C23H23FN6O5

> <Exact Mass>
482.17

> <XLogP>
0.41

> <TPSA_NOPS>
141.1

> <s_m_source_file>
ligprep_h3d.sdf

> <i_m_source_file_index>
817

> <i_lp_mmshare_version>
55123

> <i_f3d_flags>
0

> <s_epik_input>
Tz1DMVtOSF1DKD1PKVtOSF1DKD1PKUMxMltDQEBIXTNOKFtDSDJdW0NAQEhdKFtDSDNdKU9bQ0BIXTNbQ0gzXSljNGMoW0NIMl0yKVtjSF1jNWMoYzRGKW9uYzVONltDSDJdW0NIMl1bQ0BASF0oW0NIMl02KUMjTg==

> <s_epik_cmdline>
J2VwaWtfcHl0aG9uJywgJy1waHQnLCAnMC41JywgJy1waCcsICc3LjUnLCAnLXRuJywgJzgnLCAnLW1hJywgJzUwMCcsICctaW1hZScsICc8aW5maWxlLm1hZT4nLCAnLW9tYWUnLCAnPG91dGZpbGUubWFlPic=

> <r_lp_tautomer_probability>
1

> <r_epik_Ionization_Penalty>
0.455388

> <r_epik_Ionization_Penalty_Charging>
0.455373

> <r_epik_Ionization_Penalty_Neutral>
1.46211e-05

> <r_epik_State_Penalty>
0.458483

> <r_epik_Charging_Adjusted_Penalty>
0.913857

> <i_epik_Tot_Q>
-1

> <i_epik_Tot_abs_Q>
1

> <s_lp_Force_Field>
S-OPLS

> <r_lp_Energy>
54.2125

> <b_lp_Chiralities_Consistent>
1

> <s_lp_Variant>
ligprep_h3d.sdf:817-2

> <ROCS_ShapeQuery>
_7L13

> <ROCS_TanimotoCombo>
0.748 

> <ROCS_ShapeTanimoto>
0.618 

> <ROCS_ColorTanimoto>
0.131 

> <ROCS_RefTversky>
0.764 

> <ROCS_RefColorTversky>
0.298 

> <ROCS_RefTverskyCombo>
1.062 

> <ROCS_FitTversky>
0.764 

> <ROCS_FitColorTversky>
0.188 

> <ROCS_FitTverskyCombo>
0.952 

> <ROCS_ColorScore>
-2.776

> <ROCS_Overlap>
1268.292

> <ROCS_Rank>
656                 

$$$$
ligprep_h3d.sdf:1173_595
  -OEChem-08212117123D

 65 70  0     0  0  0  0  0  0999 V2000
  -16.6583   -5.2974  -26.2375 C   0  0  0  0  0  0  0  0  0  0  0  0
  -22.9424   -4.1155  -28.9187 C   0  0  0  0  0  0  0  0  0  0  0  0
  -20.7362   -4.5702  -25.4264 C   0  0  0  0  0  0  0  0  0  0  0  0
  -17.1362   -6.4608  -26.8697 C   0  0  0  0  0  0  0  0  0  0  0  0
  -20.8711   -4.6786  -27.8378 C   0  0  0  0  0  0  0  0  0  0  0  0
  -22.3706   -4.3669  -30.1684 C   0  0  0  0  0  0  0  0  0  0  0  0
  -20.2957   -4.9315  -29.0946 C   0  0  0  0  0  0  0  0  0  0  0  0
  -22.2158   -4.2636  -27.7404 C   0  0  0  0  0  0  0  0  0  0  0  0
  -20.1392   -4.8277  -26.6520 C   0  0  0  0  0  0  0  0  0  0  0  0
  -21.0456   -4.7755  -30.2568 C   0  0  0  0  0  0  0  0  0  0  0  0
  -22.0568   -4.1690  -25.4316 C   0  0  0  0  0  0  0  0  0  0  0  0
  -17.7737   -4.5129  -26.0734 C   0  0  0  0  0  0  0  0  0  0  0  0
  -22.7419   -3.8841  -24.1824 C   0  0  0  0  0  0  0  0  0  0  0  0
  -19.3204   -4.1136  -33.4886 C   0  0  0  0  0  0  0  0  0  0  0  0
  -19.4334   -6.5978  -33.0998 C   0  0  0  0  0  0  0  0  0  0  0  0
  -20.4428   -3.9123  -32.4721 C   0  0  0  0  0  0  0  0  0  0  0  0
  -20.5467   -6.3804  -32.0750 C   0  0  0  0  0  0  0  0  0  0  0  0
  -25.3237   -5.1001  -22.1787 C   0  0  0  0  0  0  0  0  0  0  0  0
  -26.4456   -3.7629  -23.2709 C   0  0  0  0  0  0  0  0  0  0  0  0
  -18.4661   -5.7218  -35.3119 C   0  0  0  0  0  0  0  0  0  0  0  0
  -20.5258   -5.6174  -35.2415 C   0  0  0  0  0  0  0  0  0  0  0  0
  -24.9466   -3.8588  -22.9870 C   0  0  0  0  0  0  0  0  0  0  0  0
  -19.4462   -5.4840  -34.1456 C   0  0  0  0  0  0  0  0  0  0  0  0
  -23.2114   -4.1884  -31.3910 C   0  0  0  0  0  0  0  0  0  0  0  0
  -18.8731   -5.3763  -29.2784 C   0  0  0  0  0  0  0  0  0  0  0  0
  -17.9249   -3.1729  -25.4730 C   0  0  0  0  0  0  0  0  0  0  0  0
  -18.4527   -6.4232  -27.0920 N   0  0  0  0  0  0  0  0  0  0  0  0
  -22.7979   -4.0130  -26.5524 N   0  0  0  0  0  0  0  0  0  0  0  0
  -18.8116   -5.2265  -26.5966 N   0  0  0  0  0  0  0  0  0  0  0  0
  -20.4787   -5.0261  -31.5126 N   0  0  0  0  0  0  0  0  0  0  0  0
  -24.1227   -4.1150  -24.1464 N   0  0  0  0  0  0  0  0  0  0  0  0
  -22.1154   -3.4354  -23.2052 O   0  0  0  0  0  0  0  0  0  0  0  0
  -26.7350   -4.8025  -22.3056 O   0  0  0  0  0  0  0  0  0  0  0  0
  -19.5486   -6.0868  -36.2010 O   0  0  0  0  0  0  0  0  0  0  0  0
  -15.6460   -5.0626  -25.9425 H   0  0  0  0  0  0  0  0  0  0  0  0
  -23.9821   -3.7944  -28.8650 H   0  0  0  0  0  0  0  0  0  0  0  0
  -20.1912   -4.6770  -24.4927 H   0  0  0  0  0  0  0  0  0  0  0  0
  -16.5799   -7.3346  -27.1775 H   0  0  0  0  0  0  0  0  0  0  0  0
  -19.3613   -3.3125  -34.2363 H   0  0  0  0  0  0  0  0  0  0  0  0
  -18.3494   -4.0242  -32.9847 H   0  0  0  0  0  0  0  0  0  0  0  0
  -18.4640   -6.6173  -32.5852 H   0  0  0  0  0  0  0  0  0  0  0  0
  -19.5600   -7.5811  -33.5689 H   0  0  0  0  0  0  0  0  0  0  0  0
  -20.2766   -2.9632  -31.9473 H   0  0  0  0  0  0  0  0  0  0  0  0
  -21.4091   -3.8421  -32.9882 H   0  0  0  0  0  0  0  0  0  0  0  0
  -21.5260   -6.5318  -32.5465 H   0  0  0  0  0  0  0  0  0  0  0  0
  -20.4434   -7.1293  -31.2798 H   0  0  0  0  0  0  0  0  0  0  0  0
  -25.0843   -6.0691  -22.6281 H   0  0  0  0  0  0  0  0  0  0  0  0
  -25.0007   -5.0894  -21.1338 H   0  0  0  0  0  0  0  0  0  0  0  0
  -26.9108   -2.8128  -22.9933 H   0  0  0  0  0  0  0  0  0  0  0  0
  -26.7744   -4.0548  -24.2734 H   0  0  0  0  0  0  0  0  0  0  0  0
  -17.9349   -4.8406  -35.6865 H   0  0  0  0  0  0  0  0  0  0  0  0
  -17.7548   -6.5434  -35.1851 H   0  0  0  0  0  0  0  0  0  0  0  0
  -21.3056   -6.3642  -35.0664 H   0  0  0  0  0  0  0  0  0  0  0  0
  -20.9885   -4.6849  -35.5806 H   0  0  0  0  0  0  0  0  0  0  0  0
  -24.5574   -3.0358  -22.3795 H   0  0  0  0  0  0  0  0  0  0  0  0
  -23.1267   -3.1609  -31.7622 H   0  0  0  0  0  0  0  0  0  0  0  0
  -22.9017   -4.8755  -32.1875 H   0  0  0  0  0  0  0  0  0  0  0  0
  -24.2667   -4.3988  -31.1791 H   0  0  0  0  0  0  0  0  0  0  0  0
  -18.8203   -6.4682  -29.2632 H   0  0  0  0  0  0  0  0  0  0  0  0
  -18.4728   -5.0133  -30.2296 H   0  0  0  0  0  0  0  0  0  0  0  0
  -18.2361   -4.9775  -28.4831 H   0  0  0  0  0  0  0  0  0  0  0  0
  -17.7979   -2.3818  -26.2300 H   0  0  0  0  0  0  0  0  0  0  0  0
  -18.9167   -3.0369  -25.0091 H   0  0  0  0  0  0  0  0  0  0  0  0
  -17.1869   -2.9926  -24.6726 H   0  0  0  0  0  0  0  0  0  0  0  0
  -24.5957   -4.4215  -24.9902 H   0  0  0  0  0  0  0  0  0  0  0  0
  1  4  1  0  0  0  0
  1 12  2  0  0  0  0
  2  6  2  0  0  0  0
  2  8  1  0  0  0  0
  3  9  1  0  0  0  0
  3 11  2  0  0  0  0
  4 27  2  0  0  0  0
  5  7  1  0  0  0  0
  5  8  1  0  0  0  0
  5  9  2  0  0  0  0
  6 10  1  0  0  0  0
  6 24  1  0  0  0  0
  7 10  2  0  0  0  0
  7 25  1  0  0  0  0
  8 28  2  0  0  0  0
  9 29  1  0  0  0  0
 10 30  1  0  0  0  0
 11 13  1  0  0  0  0
 11 28  1  0  0  0  0
 12 26  1  0  0  0  0
 12 29  1  0  0  0  0
 13 31  1  0  0  0  0
 13 32  2  0  0  0  0
 14 16  1  0  0  0  0
 14 23  1  0  0  0  0
 15 17  1  0  0  0  0
 15 23  1  0  0  0  0
 16 30  1  0  0  0  0
 17 30  1  0  0  0  0
 18 22  1  0  0  0  0
 18 33  1  0  0  0  0
 19 22  1  0  0  0  0
 19 33  1  0  0  0  0
 20 23  1  0  0  0  0
 20 34  1  0  0  0  0
 21 23  1  0  0  0  0
 21 34  1  0  0  0  0
 22 31  1  0  0  0  0
 27 29  1  0  0  0  0
  1 35  1  0  0  0  0
  2 36  1  0  0  0  0
  3 37  1  0  0  0  0
  4 38  1  0  0  0  0
 14 39  1  0  0  0  0
 14 40  1  0  0  0  0
 15 41  1  0  0  0  0
 15 42  1  0  0  0  0
 16 43  1  0  0  0  0
 16 44  1  0  0  0  0
 17 45  1  0  0  0  0
 17 46  1  0  0  0  0
 18 47  1  0  0  0  0
 18 48  1  0  0  0  0
 19 49  1  0  0  0  0
 19 50  1  0  0  0  0
 20 51  1  0  0  0  0
 20 52  1  0  0  0  0
 21 53  1  0  0  0  0
 21 54  1  0  0  0  0
 22 55  1  0  0  0  0
 24 56  1  0  0  0  0
 24 57  1  0  0  0  0
 24 58  1  0  0  0  0
 25 59  1  0  0  0  0
 25 60  1  0  0  0  0
 25 61  1  0  0  0  0
 26 62  1  0  0  0  0
 26 63  1  0  0  0  0
 26 64  1  0  0  0  0
 31 65  1  0  0  0  0
M  END
> <SMILES>
Cc1cc2nc(cc(c2c(c1N1CCC2(CC1)COC2)C)-n1nccc1C)C(=O)NC1COC1

> <FORMATTED_ID>
H3D-008150

> <MOLFORMULA>
C26H31N5O3

> <Exact Mass>
461.24

> <XLogP>
1.9

> <TPSA_NOPS>
81.5

> <s_m_source_file>
ligprep_h3d.sdf

> <i_m_source_file_index>
1173

> <i_lp_mmshare_version>
55123

> <i_f3d_flags>
0

> <s_epik_input>
W0NIMl0xT1tDSDJdQzEyW0NIMl1bQ0gyXU4oW0NIMl1bQ0gyXTIpYyhjKFtDSDNdKVtjSF0zKWMoW0NIM10pYyhjMzQpYygtbjVuW2NIXVtjSF1jNVtDSDNdKVtjSF1jKG40KUMoPU8pW05IXVtDSF02W0NIMl1PW0NIMl02

> <s_epik_cmdline>
J2VwaWtfcHl0aG9uJywgJy1waHQnLCAnMC41JywgJy1waCcsICc3LjUnLCAnLXRuJywgJzgnLCAnLW1hJywgJzUwMCcsICctaW1hZScsICc8aW5maWxlLm1hZT4nLCAnLW9tYWUnLCAnPG91dGZpbGUubWFlPic=

> <r_lp_tautomer_probability>
1

> <r_epik_Ionization_Penalty>
0.000267648

> <r_epik_Ionization_Penalty_Charging>
0

> <r_epik_Ionization_Penalty_Neutral>
0.000267648

> <r_epik_State_Penalty>
-0

> <r_epik_Charging_Adjusted_Penalty>
0

> <i_epik_Tot_Q>
0

> <i_epik_Tot_abs_Q>
0

> <s_lp_Force_Field>
S-OPLS

> <r_lp_Energy>
63.1298

> <b_lp_Chiralities_Consistent>
1

> <s_lp_Variant>
ligprep_h3d.sdf:1173-1

> <ROCS_ShapeQuery>
_7L13

> <ROCS_TanimotoCombo>
0.806 

> <ROCS_ShapeTanimoto>
0.636 

> <ROCS_ColorTanimoto>
0.169 

> <ROCS_RefTversky>
0.764 

> <ROCS_RefColorTversky>
0.332 

> <ROCS_RefTverskyCombo>
1.096 

> <ROCS_FitTversky>
0.793 

> <ROCS_FitColorTversky>
0.256 

> <ROCS_FitTverskyCombo>
1.049 

> <ROCS_ColorScore>
-3.038

> <ROCS_Overlap>
1265.728

> <ROCS_Rank>
657                 

$$$$
ligprep_h3d.sdf:911_460
  -OEChem-08212117123D

 68 72  0     1  0  0  0  0  0999 V2000
  -16.4310   -4.9345  -25.8904 C   0  0  0  0  0  0  0  0  0  0  0  0
  -22.4317   -4.7963  -29.1664 C   0  0  0  0  0  0  0  0  0  0  0  0
  -20.6447   -4.1220  -25.4756 C   0  0  0  0  0  0  0  0  0  0  0  0
  -16.5436   -3.5621  -26.1832 C   0  0  0  0  0  0  0  0  0  0  0  0
  -19.0418   -5.5776  -36.2046 C   0  0  0  0  0  0  0  0  0  0  0  0
  -20.4392   -4.5880  -27.8389 C   0  0  0  0  0  0  0  0  0  0  0  0
  -21.6599   -5.0381  -30.3056 C   0  0  0  0  0  0  0  0  0  0  0  0
  -19.6626   -4.8311  -28.9846 C   0  0  0  0  0  0  0  0  0  0  0  0
  -21.8472   -4.5690  -27.9235 C   0  0  0  0  0  0  0  0  0  0  0  0
  -19.8502   -4.3590  -26.5881 C   0  0  0  0  0  0  0  0  0  0  0  0
  -20.2736   -5.0556  -30.2149 C   0  0  0  0  0  0  0  0  0  0  0  0
  -22.0129   -4.1228  -25.6566 C   0  0  0  0  0  0  0  0  0  0  0  0
  -18.8273   -6.2073  -35.0043 C   0  0  0  0  0  0  0  0  0  0  0  0
  -17.7108   -5.4177  -26.0122 C   0  0  0  0  0  0  0  0  0  0  0  0
  -22.9018   -3.8820  -24.5329 C   0  0  0  0  0  0  0  0  0  0  0  0
  -17.9002   -6.7069  -32.6057 C   0  0  0  0  0  0  0  0  0  0  0  0
  -18.3469   -4.3542  -33.3054 C   0  0  0  0  0  0  0  0  0  0  0  0
  -19.1421   -6.6749  -31.7069 C   0  0  0  0  0  0  0  0  0  0  0  0
  -19.6312   -4.3574  -32.4785 C   0  0  0  0  0  0  0  0  0  0  0  0
  -17.9739   -5.7598  -33.8208 C   0  0  0  0  0  0  0  0  0  0  0  0
  -22.3561   -5.2755  -31.6066 C   0  0  0  0  0  0  0  0  0  0  0  0
  -18.1613   -4.8677  -28.9735 C   0  0  0  0  0  0  0  0  0  0  0  0
  -18.2428   -6.7827  -25.8309 C   0  0  0  0  0  0  0  0  0  0  0  0
  -26.2542   -5.9480  -24.1470 C   0  0  0  0  0  0  0  0  0  0  0  0
  -25.2859   -3.6536  -23.7883 C   0  0  0  0  0  0  0  0  0  0  0  0
  -25.6884   -4.9693  -23.1267 C   0  0  1  0  0  0  0  0  0  0  0  0
  -17.7961   -3.1971  -26.4696 N   0  0  0  0  0  0  0  0  0  0  0  0
  -22.6207   -4.3392  -26.8456 N   0  0  0  0  0  0  0  0  0  0  0  0
  -19.5206   -7.3854  -34.9732 N   0  0  0  0  0  0  0  0  0  0  0  0
  -20.1653   -7.5102  -36.1281 N   0  0  0  0  0  0  0  0  0  0  0  0
  -19.8768   -6.4254  -36.8650 N   0  0  0  0  0  0  0  0  0  0  0  0
  -18.4822   -4.3472  -26.3574 N   0  0  0  0  0  0  0  0  0  0  0  0
  -19.5063   -5.2987  -31.3602 N   0  0  0  0  0  0  0  0  0  0  0  0
  -24.2775   -3.8982  -24.7943 N   0  0  0  0  0  0  0  0  0  0  0  0
  -22.4413   -3.6527  -23.3997 O   0  0  0  0  0  0  0  0  0  0  0  0
  -26.6911   -4.6995  -22.1488 O   0  0  0  0  0  0  0  0  0  0  0  0
  -15.5444   -5.4933  -25.6283 H   0  0  0  0  0  0  0  0  0  0  0  0
  -23.5176   -4.7842  -29.2531 H   0  0  0  0  0  0  0  0  0  0  0  0
  -20.2137   -3.9406  -24.4949 H   0  0  0  0  0  0  0  0  0  0  0  0
  -15.7651   -2.8130  -26.1999 H   0  0  0  0  0  0  0  0  0  0  0  0
  -18.6942   -4.6483  -36.6321 H   0  0  0  0  0  0  0  0  0  0  0  0
  -17.0082   -6.4604  -31.9937 H   0  0  0  0  0  0  0  0  0  0  0  0
  -17.7276   -7.7491  -32.9490 H   0  0  0  0  0  0  0  0  0  0  0  0
  -18.4588   -3.6591  -34.1539 H   0  0  0  0  0  0  0  0  0  0  0  0
  -17.5237   -3.9515  -32.6945 H   0  0  0  0  0  0  0  0  0  0  0  0
  -19.9701   -7.1743  -32.2365 H   0  0  0  0  0  0  0  0  0  0  0  0
  -18.9533   -7.2559  -30.7886 H   0  0  0  0  0  0  0  0  0  0  0  0
  -19.8344   -3.3480  -32.0954 H   0  0  0  0  0  0  0  0  0  0  0  0
  -20.4707   -4.6378  -33.1284 H   0  0  0  0  0  0  0  0  0  0  0  0
  -16.9149   -5.6668  -34.2317 H   0  0  0  0  0  0  0  0  0  0  0  0
  -22.5078   -4.3269  -32.1337 H   0  0  0  0  0  0  0  0  0  0  0  0
  -21.7731   -5.9449  -32.2505 H   0  0  0  0  0  0  0  0  0  0  0  0
  -23.3324   -5.7505  -31.4515 H   0  0  0  0  0  0  0  0  0  0  0  0
  -17.8159   -5.8857  -28.7743 H   0  0  0  0  0  0  0  0  0  0  0  0
  -17.7580   -4.5362  -29.9349 H   0  0  0  0  0  0  0  0  0  0  0  0
  -17.7626   -4.1991  -28.2047 H   0  0  0  0  0  0  0  0  0  0  0  0
  -18.5553   -6.9519  -24.7875 H   0  0  0  0  0  0  0  0  0  0  0  0
  -19.1155   -6.9760  -26.4778 H   0  0  0  0  0  0  0  0  0  0  0  0
  -17.4969   -7.5547  -26.0868 H   0  0  0  0  0  0  0  0  0  0  0  0
  -27.1137   -5.5216  -24.6732 H   0  0  0  0  0  0  0  0  0  0  0  0
  -25.4938   -6.2293  -24.8840 H   0  0  0  0  0  0  0  0  0  0  0  0
  -26.5726   -6.8734  -23.6549 H   0  0  0  0  0  0  0  0  0  0  0  0
  -26.1491   -3.1791  -24.2674 H   0  0  0  0  0  0  0  0  0  0  0  0
  -24.8781   -2.9574  -23.0482 H   0  0  0  0  0  0  0  0  0  0  0  0
  -24.8305   -5.4208  -22.6154 H   0  0  0  0  0  0  0  0  0  0  0  0
  -20.2789   -6.3359  -37.7903 H   0  0  0  0  0  0  0  0  0  0  0  0
  -24.5989   -4.0274  -25.7481 H   0  0  0  0  0  0  0  0  0  0  0  0
  -26.9102   -5.5497  -21.7378 H   0  0  0  0  0  0  0  0  0  0  0  0
  1  4  1  0  0  0  0
  1 14  2  0  0  0  0
  2  7  2  0  0  0  0
  2  9  1  0  0  0  0
  3 10  1  0  0  0  0
  3 12  2  0  0  0  0
  4 27  2  0  0  0  0
  5 13  2  0  0  0  0
  5 31  1  0  0  0  0
  6  8  1  0  0  0  0
  6  9  1  0  0  0  0
  6 10  2  0  0  0  0
  7 11  1  0  0  0  0
  7 21  1  0  0  0  0
  8 11  2  0  0  0  0
  8 22  1  0  0  0  0
  9 28  2  0  0  0  0
 10 32  1  0  0  0  0
 11 33  1  0  0  0  0
 12 15  1  0  0  0  0
 12 28  1  0  0  0  0
 13 20  1  0  0  0  0
 13 29  1  0  0  0  0
 14 23  1  0  0  0  0
 14 32  1  0  0  0  0
 15 34  1  0  0  0  0
 15 35  2  0  0  0  0
 16 18  1  0  0  0  0
 16 20  1  0  0  0  0
 17 19  1  0  0  0  0
 17 20  1  0  0  0  0
 18 33  1  0  0  0  0
 19 33  1  0  0  0  0
 24 26  1  0  0  0  0
 25 26  1  0  0  0  0
 25 34  1  0  0  0  0
 26 36  1  0  0  0  0
 27 32  1  0  0  0  0
 29 30  2  0  0  0  0
 30 31  1  0  0  0  0
  1 37  1  0  0  0  0
  2 38  1  0  0  0  0
  3 39  1  0  0  0  0
  4 40  1  0  0  0  0
  5 41  1  0  0  0  0
 16 42  1  0  0  0  0
 16 43  1  0  0  0  0
 17 44  1  0  0  0  0
 17 45  1  0  0  0  0
 18 46  1  0  0  0  0
 18 47  1  0  0  0  0
 19 48  1  0  0  0  0
 19 49  1  0  0  0  0
 20 50  1  0  0  0  0
 21 51  1  0  0  0  0
 21 52  1  0  0  0  0
 21 53  1  0  0  0  0
 22 54  1  0  0  0  0
 22 55  1  0  0  0  0
 22 56  1  0  0  0  0
 23 57  1  0  0  0  0
 23 58  1  0  0  0  0
 23 59  1  0  0  0  0
 24 60  1  0  0  0  0
 24 61  1  0  0  0  0
 24 62  1  0  0  0  0
 25 63  1  0  0  0  0
 25 64  1  0  0  0  0
 26 65  1  0  0  0  0
 31 66  1  0  0  0  0
 34 67  1  0  0  0  0
 36 68  1  0  0  0  0
M  END
> <SMILES>
C[C@H](O)CNC(=O)c1cc(c2c(c(c(cc2n1)C)N1CCC(CC1)c1cnn[nH]1)C)-n1nccc1C

> <FORMATTED_ID>
H3D-005847

> <MOLFORMULA>
C26H32N8O2

> <Exact Mass>
488.26

> <XLogP>
2.52

> <TPSA_NOPS>
124.8

> <s_m_source_file>
ligprep_h3d.sdf

> <i_m_source_file_index>
911

> <i_lp_mmshare_version>
55123

> <i_f3d_flags>
0

> <s_epik_input>
W0NIM11jMVtjSF1bY0hdbm4xLWMyW2NIXWMoQyg9TylbTkhdW0NIMl1bQ0BIXShbQ0gzXSlbT0hdKW5jKGMyMylbY0hdYyhbQ0gzXSljKGMzW0NIM10pTjRbQ0gyXVtDSDJdW0NIXShbQ0gyXVtDSDJdNCljNVtjSF1ubltuSF01

> <s_epik_cmdline>
J2VwaWtfcHl0aG9uJywgJy1waHQnLCAnMC41JywgJy1waCcsICc3LjUnLCAnLXRuJywgJzgnLCAnLW1hJywgJzUwMCcsICctaW1hZScsICc8aW5maWxlLm1hZT4nLCAnLW9tYWUnLCAnPG91dGZpbGUubWFlPic=

> <r_lp_tautomer_probability>
0.173826

> <r_epik_Ionization_Penalty>
0.00359747

> <r_epik_Ionization_Penalty_Charging>
0

> <r_epik_Ionization_Penalty_Neutral>
0.00359747

> <r_epik_State_Penalty>
0.41068

> <r_epik_Charging_Adjusted_Penalty>
0.41068

> <i_epik_Tot_Q>
0

> <i_epik_Tot_abs_Q>
0

> <s_lp_Force_Field>
S-OPLS

> <r_lp_Energy>
57.1392

> <b_lp_Chiralities_Consistent>
1

> <s_lp_Variant>
ligprep_h3d.sdf:911-2

> <ROCS_ShapeQuery>
_7L13

> <ROCS_TanimotoCombo>
0.746 

> <ROCS_ShapeTanimoto>
0.614 

> <ROCS_ColorTanimoto>
0.131 

> <ROCS_RefTversky>
0.764 

> <ROCS_RefColorTversky>
0.293 

> <ROCS_RefTverskyCombo>
1.056 

> <ROCS_FitTversky>
0.759 

> <ROCS_FitColorTversky>
0.193 

> <ROCS_FitTverskyCombo>
0.951 

> <ROCS_ColorScore>
-2.713

> <ROCS_Overlap>
1268.709

> <ROCS_Rank>
658                 

$$$$
ligprep_h3d.sdf:4985_1819
  -OEChem-08212117123D

 66 70  0     1  0  0  0  0  0999 V2000
  -18.9790   -7.0976  -34.8915 C   0  0  0  0  0  0  0  0  0  0  0  0
  -18.8484   -5.7528  -34.5452 C   0  0  0  0  0  0  0  0  0  0  0  0
  -20.2283   -7.7152  -34.8312 C   0  0  0  0  0  0  0  0  0  0  0  0
  -19.9670   -5.0256  -34.1383 C   0  0  0  0  0  0  0  0  0  0  0  0
  -21.3469   -6.9880  -34.4244 C   0  0  0  0  0  0  0  0  0  0  0  0
  -24.8729   -4.4051  -25.3093 C   0  0  0  0  0  0  0  0  0  0  0  0
  -23.3032   -4.7370  -23.5029 C   0  0  0  0  0  0  0  0  0  0  0  0
  -25.9260   -4.4075  -24.3947 C   0  0  0  0  0  0  0  0  0  0  0  0
  -24.3563   -4.7393  -22.5883 C   0  0  0  0  0  0  0  0  0  0  0  0
  -16.5744   -5.5967  -26.3581 C   0  0  0  0  0  0  0  0  0  0  0  0
  -17.5861   -4.1359  -24.7212 C   0  0  0  0  0  0  0  0  0  0  0  0
  -15.4840   -5.2230  -24.2347 C   0  0  0  0  0  0  0  0  0  0  0  0
  -21.2163   -5.6431  -34.0779 C   0  0  0  0  0  0  0  0  0  0  0  0
  -17.6123   -4.7475  -25.9746 C   0  0  0  0  0  0  0  0  0  0  0  0
  -23.5615   -4.5700  -24.8635 C   0  0  0  0  0  0  0  0  0  0  0  0
  -25.6677   -4.5746  -23.0342 C   0  0  0  0  0  0  0  0  0  0  0  0
  -15.5103   -5.8346  -25.4881 C   0  0  0  0  0  0  0  0  0  0  0  0
  -16.5219   -4.3737  -23.8513 C   0  0  0  0  0  0  0  0  0  0  0  0
  -21.7590   -3.9254  -31.4336 C   0  0  0  0  0  0  0  0  0  0  0  0
  -21.8990   -5.3967  -29.3713 C   0  0  0  0  0  0  0  0  0  0  0  0
  -18.9560   -4.9897  -28.1593 C   0  0  0  0  0  0  0  0  0  0  0  0
  -19.6721   -3.4860  -26.8720 C   0  0  0  0  0  0  0  0  0  0  0  0
  -20.5746   -3.3589  -29.3325 C   0  0  0  0  0  0  0  0  0  0  0  0
  -21.5250   -5.1141  -27.9172 C   0  0  1  0  0  0  0  0  0  0  0  0
  -20.2974   -4.2050  -28.0931 C   0  0  0  0  0  0  0  0  0  0  0  0
  -22.4268   -4.8570  -33.6376 C   0  0  0  0  0  0  0  0  0  0  0  0
  -22.6630   -4.4049  -27.1854 C   0  0  0  0  0  0  0  0  0  0  0  0
  -22.6596   -4.9130  -32.1316 C   0  0  2  0  0  0  0  0  0  0  0  0
  -18.6818   -4.5077  -26.8490 N   0  0  0  0  0  0  0  0  0  0  0  0
  -21.4444   -4.2251  -30.1177 N   0  0  0  0  0  0  0  0  0  0  0  0
  -22.5068   -4.5677  -25.7794 N   0  0  0  0  0  0  0  0  0  0  0  0
  -24.0650   -4.5596  -31.8121 N   0  3  0  0  0  0  0  0  0  0  0  0
  -21.3543   -2.9248  -32.0280 O   0  0  0  0  0  0  0  0  0  0  0  0
  -26.6791   -4.5768  -22.1559 F   0  0  0  0  0  0  0  0  0  0  0  0
  -14.5129   -6.6488  -25.8574 F   0  0  0  0  0  0  0  0  0  0  0  0
  -16.4958   -3.7849  -22.6485 F   0  0  0  0  0  0  0  0  0  0  0  0
  -18.1082   -7.6634  -35.2096 H   0  0  0  0  0  0  0  0  0  0  0  0
  -17.8759   -5.2715  -34.5931 H   0  0  0  0  0  0  0  0  0  0  0  0
  -20.3306   -8.7619  -35.1019 H   0  0  0  0  0  0  0  0  0  0  0  0
  -19.8557   -3.9782  -33.8701 H   0  0  0  0  0  0  0  0  0  0  0  0
  -22.3162   -7.4775  -34.3803 H   0  0  0  0  0  0  0  0  0  0  0  0
  -25.0854   -4.2739  -26.3673 H   0  0  0  0  0  0  0  0  0  0  0  0
  -22.2852   -4.8666  -23.1445 H   0  0  0  0  0  0  0  0  0  0  0  0
  -26.9471   -4.2790  -24.7415 H   0  0  0  0  0  0  0  0  0  0  0  0
  -24.1559   -4.8697  -21.5289 H   0  0  0  0  0  0  0  0  0  0  0  0
  -16.5844   -6.0777  -27.3326 H   0  0  0  0  0  0  0  0  0  0  0  0
  -18.3892   -3.4716  -24.4127 H   0  0  0  0  0  0  0  0  0  0  0  0
  -14.6545   -5.4074  -23.5585 H   0  0  0  0  0  0  0  0  0  0  0  0
  -21.3386   -6.2542  -29.7594 H   0  0  0  0  0  0  0  0  0  0  0  0
  -22.9648   -5.5776  -29.5351 H   0  0  0  0  0  0  0  0  0  0  0  0
  -19.0447   -6.0822  -28.1890 H   0  0  0  0  0  0  0  0  0  0  0  0
  -18.2238   -4.6593  -28.9022 H   0  0  0  0  0  0  0  0  0  0  0  0
  -19.2588   -2.4896  -27.0533 H   0  0  0  0  0  0  0  0  0  0  0  0
  -20.2833   -3.4811  -25.9623 H   0  0  0  0  0  0  0  0  0  0  0  0
  -21.1368   -2.4488  -29.0901 H   0  0  0  0  0  0  0  0  0  0  0  0
  -19.6779   -3.0860  -29.9000 H   0  0  0  0  0  0  0  0  0  0  0  0
  -21.2849   -6.0418  -27.3878 H   0  0  0  0  0  0  0  0  0  0  0  0
  -23.3169   -5.2048  -34.1798 H   0  0  0  0  0  0  0  0  0  0  0  0
  -22.2897   -3.8151  -33.9586 H   0  0  0  0  0  0  0  0  0  0  0  0
  -22.6146   -3.3521  -27.4577 H   0  0  0  0  0  0  0  0  0  0  0  0
  -23.5942   -4.8563  -27.5231 H   0  0  0  0  0  0  0  0  0  0  0  0
  -22.4734   -5.8989  -31.7048 H   0  0  0  0  0  0  0  0  0  0  0  0
  -21.5669   -4.6940  -25.3949 H   0  0  0  0  0  0  0  0  0  0  0  0
  -24.1069   -3.8818  -31.0438 H   0  0  0  0  0  0  0  0  0  0  0  0
  -24.5963   -5.3904  -31.5304 H   0  0  0  0  0  0  0  0  0  0  0  0
  -24.5327   -4.1455  -32.6254 H   0  0  0  0  0  0  0  0  0  0  0  0
  1  2  2  0  0  0  0
  1  3  1  0  0  0  0
  2  4  1  0  0  0  0
  3  5  2  0  0  0  0
  4 13  2  0  0  0  0
  5 13  1  0  0  0  0
  6  8  1  0  0  0  0
  6 15  2  0  0  0  0
  7  9  2  0  0  0  0
  7 15  1  0  0  0  0
  8 16  2  0  0  0  0
  9 16  1  0  0  0  0
 10 14  2  0  0  0  0
 10 17  1  0  0  0  0
 11 14  1  0  0  0  0
 11 18  2  0  0  0  0
 12 17  2  0  0  0  0
 12 18  1  0  0  0  0
 13 26  1  0  0  0  0
 14 29  1  0  0  0  0
 15 31  1  0  0  0  0
 16 34  1  0  0  0  0
 17 35  1  0  0  0  0
 18 36  1  0  0  0  0
 19 28  1  0  0  0  0
 19 30  1  0  0  0  0
 19 33  2  0  0  0  0
 20 24  1  0  0  0  0
 20 30  1  0  0  0  0
 21 25  1  0  0  0  0
 21 29  1  0  0  0  0
 22 25  1  0  0  0  0
 22 29  1  0  0  0  0
 23 25  1  0  0  0  0
 23 30  1  0  0  0  0
 24 25  1  0  0  0  0
 24 27  1  0  0  0  0
 26 28  1  0  0  0  0
 27 31  1  0  0  0  0
 28 32  1  0  0  0  0
  1 37  1  0  0  0  0
  2 38  1  0  0  0  0
  3 39  1  0  0  0  0
  4 40  1  0  0  0  0
  5 41  1  0  0  0  0
  6 42  1  0  0  0  0
  7 43  1  0  0  0  0
  8 44  1  0  0  0  0
  9 45  1  0  0  0  0
 10 46  1  0  0  0  0
 11 47  1  0  0  0  0
 12 48  1  0  0  0  0
 20 49  1  0  0  0  0
 20 50  1  0  0  0  0
 21 51  1  0  0  0  0
 21 52  1  0  0  0  0
 22 53  1  0  0  0  0
 22 54  1  0  0  0  0
 23 55  1  0  0  0  0
 23 56  1  0  0  0  0
 24 57  1  0  0  0  0
 26 58  1  0  0  0  0
 26 59  1  0  0  0  0
 27 60  1  0  0  0  0
 27 61  1  0  0  0  0
 28 62  1  0  0  0  0
 31 63  1  0  0  0  0
 32 64  1  0  0  0  0
 32 65  1  0  0  0  0
 32 66  1  0  0  0  0
M  CHG  1  32   1
M  END
> <SMILES>
N[C@@H](Cc1ccccc1)C(=O)N1CC(CNc2ccc(cc2)F)C2(C1)CN(C2)c1cc(cc(c1)F)F

> <FORMATTED_ID>
H3D-008628

> <MOLFORMULA>
C28H29F3N4O

> <Exact Mass>
494.23

> <XLogP>
3.64

> <TPSA_NOPS>
61.6

> <s_m_source_file>
ligprep_h3d.sdf

> <i_m_source_file_index>
4985

> <i_lp_mmshare_version>
55123

> <i_f3d_flags>
0

> <s_epik_input>
W2NIXTFbY0hdW2NIXVtjSF1bY0hdYzFbQ0gyXVtDQEhdKFtOSDJdKUMoPU8pTihbQ0gyXTIpW0NIMl1bQ0BIXShbQ0gyXVtOSF1jM1tjSF1bY0hdYyhGKVtjSF1bY0hdMylDMjRbQ0gyXU4oW0NIMl00KWM1W2NIXWMoRilbY0hdYyhGKVtjSF01

> <s_epik_cmdline>
J2VwaWtfcHl0aG9uJywgJy1waHQnLCAnMC41JywgJy1waCcsICc3LjUnLCAnLXRuJywgJzgnLCAnLW1hJywgJzUwMCcsICctaW1hZScsICc8aW5maWxlLm1hZT4nLCAnLW9tYWUnLCAnPG91dGZpbGUubWFlPic=

> <r_epik_Ionization_Penalty>
0.384723

> <r_epik_Ionization_Penalty_Charging>
0.382744

> <r_epik_Ionization_Penalty_Neutral>
0.00197845

> <r_epik_State_Penalty>
0.38092

> <r_epik_Charging_Adjusted_Penalty>
0.763664

> <i_epik_Tot_Q>
1

> <i_epik_Tot_abs_Q>
1

> <s_lp_Force_Field>
S-OPLS

> <r_lp_Energy>
34.3323

> <b_lp_Chiralities_Consistent>
1

> <s_lp_Variant>
ligprep_h3d.sdf:4985-1

> <ROCS_ShapeQuery>
_7L13

> <ROCS_TanimotoCombo>
0.684 

> <ROCS_ShapeTanimoto>
0.624 

> <ROCS_ColorTanimoto>
0.060 

> <ROCS_RefTversky>
0.764 

> <ROCS_RefColorTversky>
0.114 

> <ROCS_RefTverskyCombo>
0.878 

> <ROCS_FitTversky>
0.773 

> <ROCS_FitColorTversky>
0.114 

> <ROCS_FitTverskyCombo>
0.887 

> <ROCS_ColorScore>
-1.024

> <ROCS_Overlap>
1267.311

> <ROCS_Rank>
659                 

$$$$
ligprep_h3d.sdf:822_272
  -OEChem-08212117123D

 84 88  0     0  0  0  0  0  0999 V2000
  -19.7157   -4.2545  -32.4053 C   0  0  0  0  0  0  0  0  0  0  0  0
  -20.2609   -6.5814  -32.0507 C   0  0  0  0  0  0  0  0  0  0  0  0
  -19.1233   -4.5793  -33.6256 C   0  0  0  0  0  0  0  0  0  0  0  0
  -19.6685   -6.9061  -33.2711 C   0  0  0  0  0  0  0  0  0  0  0  0
  -16.7862   -5.9180  -26.3983 C   0  0  0  0  0  0  0  0  0  0  0  0
  -22.8550   -4.2673  -29.0869 C   0  0  0  0  0  0  0  0  0  0  0  0
  -20.6658   -4.2414  -25.5546 C   0  0  0  0  0  0  0  0  0  0  0  0
  -16.6151   -4.5375  -26.6146 C   0  0  0  0  0  0  0  0  0  0  0  0
  -20.7636   -4.5833  -27.9459 C   0  0  0  0  0  0  0  0  0  0  0  0
  -20.2844   -5.2556  -31.6178 C   0  0  0  0  0  0  0  0  0  0  0  0
  -20.9015   -4.9172  -30.3461 C   0  0  0  0  0  0  0  0  0  0  0  0
  -19.0997   -5.9051  -34.0585 C   0  0  0  0  0  0  0  0  0  0  0  0
  -22.2522   -4.5943  -30.3041 C   0  0  0  0  0  0  0  0  0  0  0  0
  -20.1570   -4.9121  -29.1701 C   0  0  0  0  0  0  0  0  0  0  0  0
  -22.1345   -4.2545  -27.8957 C   0  0  0  0  0  0  0  0  0  0  0  0
  -20.0378   -4.5704  -26.7472 C   0  0  0  0  0  0  0  0  0  0  0  0
  -22.0104   -3.9342  -25.6051 C   0  0  0  0  0  0  0  0  0  0  0  0
  -18.1470   -6.1033  -26.4231 C   0  0  0  0  0  0  0  0  0  0  0  0
  -19.4024   -6.9336  -36.3119 C   0  0  0  0  0  0  0  0  0  0  0  0
  -20.2357   -8.6109  -37.3434 C   0  0  0  0  0  0  0  0  0  0  0  0
  -22.7451   -3.5746  -24.3649 C   0  0  0  0  0  0  0  0  0  0  0  0
  -23.0980   -4.5830  -31.5378 C   0  0  0  0  0  0  0  0  0  0  0  0
  -18.7027   -5.2716  -29.2934 C   0  0  0  0  0  0  0  0  0  0  0  0
  -18.9518   -7.3295  -26.2574 C   0  0  0  0  0  0  0  0  0  0  0  0
  -29.1688   -6.2180  -24.9882 C   0  0  0  0  0  0  0  0  0  0  0  0
  -27.1214   -6.8816  -26.2831 C   0  0  0  0  0  0  0  0  0  0  0  0
  -28.1985   -8.5180  -24.7114 C   0  0  0  0  0  0  0  0  0  0  0  0
  -27.7171   -6.6079  -21.9174 C   0  0  0  0  0  0  0  0  0  0  0  0
  -25.2269   -7.4782  -23.4405 C   0  0  0  0  0  0  0  0  0  0  0  0
  -18.4662   -6.2524  -35.3632 C   0  0  0  0  0  0  0  0  0  0  0  0
  -24.9335   -2.8919  -23.4158 C   0  0  0  0  0  0  0  0  0  0  0  0
  -25.5557   -4.1262  -22.7890 C   0  0  0  0  0  0  0  0  0  0  0  0
  -27.8547   -7.0281  -24.9310 C   0  0  0  0  0  0  0  0  0  0  0  0
  -17.7744   -3.8916  -26.7658 N   0  0  0  0  0  0  0  0  0  0  0  0
  -22.7467   -3.9348  -26.7399 N   0  0  0  0  0  0  0  0  0  0  0  0
  -20.3251   -6.3810  -37.0299 N   0  0  0  0  0  0  0  0  0  0  0  0
  -18.6870   -4.8706  -26.6444 N   0  0  0  0  0  0  0  0  0  0  0  0
  -20.8600   -7.4368  -37.6885 N   0  0  0  0  0  0  0  0  0  0  0  0
  -24.0698   -3.2924  -24.5500 N   0  0  0  0  0  0  0  0  0  0  0  0
  -20.4637   -9.7405  -37.7441 O   0  0  0  0  0  0  0  0  0  0  0  0
  -22.1378   -3.5345  -23.2980 O   0  0  0  0  0  0  0  0  0  0  0  0
  -19.2741   -8.2736  -36.4337 O   0  0  0  0  0  0  0  0  0  0  0  0
  -26.3653   -4.7864  -23.7510 O   0  0  0  0  0  0  0  0  0  0  0  0
  -26.7663   -6.4008  -23.5309 Si  0  0  0  0  0  0  0  0  0  0  0  0
  -19.7256   -3.2165  -32.0814 H   0  0  0  0  0  0  0  0  0  0  0  0
  -20.7005   -7.3729  -31.4484 H   0  0  0  0  0  0  0  0  0  0  0  0
  -18.6817   -3.7931  -34.2322 H   0  0  0  0  0  0  0  0  0  0  0  0
  -19.6551   -7.9417  -33.6009 H   0  0  0  0  0  0  0  0  0  0  0  0
  -16.0275   -6.6717  -26.2463 H   0  0  0  0  0  0  0  0  0  0  0  0
  -23.9150   -4.0163  -29.0688 H   0  0  0  0  0  0  0  0  0  0  0  0
  -20.1266   -4.2238  -24.6115 H   0  0  0  0  0  0  0  0  0  0  0  0
  -15.6938   -3.9754  -26.6685 H   0  0  0  0  0  0  0  0  0  0  0  0
  -23.0785   -3.5900  -31.9998 H   0  0  0  0  0  0  0  0  0  0  0  0
  -22.7394   -5.3176  -32.2681 H   0  0  0  0  0  0  0  0  0  0  0  0
  -24.1374   -4.8423  -31.3052 H   0  0  0  0  0  0  0  0  0  0  0  0
  -18.5765   -6.3504  -29.1726 H   0  0  0  0  0  0  0  0  0  0  0  0
  -18.3120   -4.9731  -30.2701 H   0  0  0  0  0  0  0  0  0  0  0  0
  -18.1109   -4.7550  -28.5325 H   0  0  0  0  0  0  0  0  0  0  0  0
  -19.2092   -7.4957  -25.1985 H   0  0  0  0  0  0  0  0  0  0  0  0
  -19.8948   -7.2858  -26.8286 H   0  0  0  0  0  0  0  0  0  0  0  0
  -18.4188   -8.2261  -26.6175 H   0  0  0  0  0  0  0  0  0  0  0  0
  -29.7278   -6.2906  -24.0477 H   0  0  0  0  0  0  0  0  0  0  0  0
  -28.9677   -5.1560  -25.1705 H   0  0  0  0  0  0  0  0  0  0  0  0
  -29.8254   -6.5721  -25.7921 H   0  0  0  0  0  0  0  0  0  0  0  0
  -26.1783   -7.4411  -26.2925 H   0  0  0  0  0  0  0  0  0  0  0  0
  -26.8866   -5.8332  -26.5022 H   0  0  0  0  0  0  0  0  0  0  0  0
  -27.7377   -7.2603  -27.1069 H   0  0  0  0  0  0  0  0  0  0  0  0
  -27.2947   -9.1368  -24.6635 H   0  0  0  0  0  0  0  0  0  0  0  0
  -28.7458   -8.6604  -23.7722 H   0  0  0  0  0  0  0  0  0  0  0  0
  -28.8259   -8.9096  -25.5208 H   0  0  0  0  0  0  0  0  0  0  0  0
  -28.6274   -6.0006  -21.9138 H   0  0  0  0  0  0  0  0  0  0  0  0
  -28.0121   -7.6503  -21.7630 H   0  0  0  0  0  0  0  0  0  0  0  0
  -27.1106   -6.3033  -21.0590 H   0  0  0  0  0  0  0  0  0  0  0  0
  -24.6330   -7.3972  -24.3560 H   0  0  0  0  0  0  0  0  0  0  0  0
  -24.5876   -7.1851  -22.6022 H   0  0  0  0  0  0  0  0  0  0  0  0
  -25.4890   -8.5322  -23.3062 H   0  0  0  0  0  0  0  0  0  0  0  0
  -18.0715   -5.3444  -35.8469 H   0  0  0  0  0  0  0  0  0  0  0  0
  -17.5889   -6.9010  -35.2104 H   0  0  0  0  0  0  0  0  0  0  0  0
  -25.7009   -2.2088  -23.7936 H   0  0  0  0  0  0  0  0  0  0  0  0
  -24.3134   -2.3647  -22.6844 H   0  0  0  0  0  0  0  0  0  0  0  0
  -26.1959   -3.8379  -21.9494 H   0  0  0  0  0  0  0  0  0  0  0  0
  -24.7921   -4.8250  -22.4322 H   0  0  0  0  0  0  0  0  0  0  0  0
  -21.6230   -7.3007  -38.3396 H   0  0  0  0  0  0  0  0  0  0  0  0
  -24.5097   -3.2761  -25.4469 H   0  0  0  0  0  0  0  0  0  0  0  0
  1  3  1  0  0  0  0
  1 10  2  0  0  0  0
  2  4  2  0  0  0  0
  2 10  1  0  0  0  0
  3 12  2  0  0  0  0
  4 12  1  0  0  0  0
  5  8  1  0  0  0  0
  5 18  2  0  0  0  0
  6 13  2  0  0  0  0
  6 15  1  0  0  0  0
  7 16  1  0  0  0  0
  7 17  2  0  0  0  0
  8 34  2  0  0  0  0
  9 14  1  0  0  0  0
  9 15  1  0  0  0  0
  9 16  2  0  0  0  0
 10 11  1  0  0  0  0
 11 13  1  0  0  0  0
 11 14  2  0  0  0  0
 12 30  1  0  0  0  0
 13 22  1  0  0  0  0
 14 23  1  0  0  0  0
 15 35  2  0  0  0  0
 16 37  1  0  0  0  0
 17 21  1  0  0  0  0
 17 35  1  0  0  0  0
 18 24  1  0  0  0  0
 18 37  1  0  0  0  0
 19 30  1  0  0  0  0
 19 36  2  0  0  0  0
 19 42  1  0  0  0  0
 20 38  1  0  0  0  0
 20 40  2  0  0  0  0
 20 42  1  0  0  0  0
 21 39  1  0  0  0  0
 21 41  2  0  0  0  0
 25 33  1  0  0  0  0
 26 33  1  0  0  0  0
 27 33  1  0  0  0  0
 28 44  1  0  0  0  0
 29 44  1  0  0  0  0
 31 32  1  0  0  0  0
 31 39  1  0  0  0  0
 32 43  1  0  0  0  0
 33 44  1  0  0  0  0
 34 37  1  0  0  0  0
 36 38  1  0  0  0  0
 43 44  1  0  0  0  0
  1 45  1  0  0  0  0
  2 46  1  0  0  0  0
  3 47  1  0  0  0  0
  4 48  1  0  0  0  0
  5 49  1  0  0  0  0
  6 50  1  0  0  0  0
  7 51  1  0  0  0  0
  8 52  1  0  0  0  0
 22 53  1  0  0  0  0
 22 54  1  0  0  0  0
 22 55  1  0  0  0  0
 23 56  1  0  0  0  0
 23 57  1  0  0  0  0
 23 58  1  0  0  0  0
 24 59  1  0  0  0  0
 24 60  1  0  0  0  0
 24 61  1  0  0  0  0
 25 62  1  0  0  0  0
 25 63  1  0  0  0  0
 25 64  1  0  0  0  0
 26 65  1  0  0  0  0
 26 66  1  0  0  0  0
 26 67  1  0  0  0  0
 27 68  1  0  0  0  0
 27 69  1  0  0  0  0
 27 70  1  0  0  0  0
 28 71  1  0  0  0  0
 28 72  1  0  0  0  0
 28 73  1  0  0  0  0
 29 74  1  0  0  0  0
 29 75  1  0  0  0  0
 29 76  1  0  0  0  0
 30 77  1  0  0  0  0
 30 78  1  0  0  0  0
 31 79  1  0  0  0  0
 31 80  1  0  0  0  0
 32 81  1  0  0  0  0
 32 82  1  0  0  0  0
 38 83  1  0  0  0  0
 39 84  1  0  0  0  0
M  END
> <SMILES>
Cc1cc2nc(cc(c2c(c1-c1ccc(cc1)CC1=NNC(=O)O1)C)-n1nccc1C)C(=O)NCCO[Si](C)(C)C(C)(C)C

> <FORMATTED_ID>
H3D-005521

> <MOLFORMULA>
C33H40N6O4Si

> <Exact Mass>
612.29

> <XLogP>
6.3

> <TPSA_NOPS>
119.7

> <s_m_source_file>
ligprep_h3d.sdf

> <i_m_source_file_index>
822

> <i_lp_mmshare_version>
55123

> <i_f3d_flags>
0

> <s_epik_input>
Tz1jKG8xKVtuSF1uYzFbQ0gyXWMoW2NIXVtjSF0yKVtjSF1bY0hdYzItYyhjKFtDSDNdKVtjSF0zKWMoW0NIM10pYyhjMzQpYygtbjVuW2NIXVtjSF1jNVtDSDNdKVtjSF1jKG40KUMoPU8pW05IXVtDSDJdW0NIMl1PW1NpXShbQ0gzXSkoW0NIM10pQyhbQ0gzXSkoW0NIM10pW0NIM10=

> <s_epik_cmdline>
J2VwaWtfcHl0aG9uJywgJy1waHQnLCAnMC41JywgJy1waCcsICc3LjUnLCAnLXRuJywgJzgnLCAnLW1hJywgJzUwMCcsICctaW1hZScsICc8aW5maWxlLm1hZT4nLCAnLW9tYWUnLCAnPG91dGZpbGUubWFlPic=

> <r_lp_tautomer_probability>
0.999987

> <r_epik_Ionization_Penalty>
0.962708

> <r_epik_Ionization_Penalty_Charging>
0.962689

> <r_epik_Ionization_Penalty_Neutral>
1.9192e-05

> <r_epik_State_Penalty>
1.30194e-05

> <r_epik_Charging_Adjusted_Penalty>
0.962702

> <i_epik_Tot_Q>
0

> <i_epik_Tot_abs_Q>
0

> <s_lp_Force_Field>
S-OPLS

> <r_lp_Energy>
49.2156

> <b_lp_Chiralities_Consistent>
1

> <s_lp_Variant>
ligprep_h3d.sdf:822-1

> <ROCS_ShapeQuery>
_7L13

> <ROCS_TanimotoCombo>
0.634 

> <ROCS_ShapeTanimoto>
0.540 

> <ROCS_ColorTanimoto>
0.094 

> <ROCS_RefTversky>
0.764 

> <ROCS_RefColorTversky>
0.206 

> <ROCS_RefTverskyCombo>
0.970 

> <ROCS_FitTversky>
0.649 

> <ROCS_FitColorTversky>
0.148 

> <ROCS_FitTverskyCombo>
0.797 

> <ROCS_ColorScore>
-1.894

> <ROCS_Overlap>
1280.698

> <ROCS_Rank>
660                 

$$$$
ligprep_h3d.sdf:147_1630
  -OEChem-08212117123D

 55 58  0     0  0  0  0  0  0999 V2000
  -19.6558   -8.0527  -35.4182 C   0  0  0  0  0  0  0  0  0  0  0  0
  -19.4780   -6.8100  -36.0262 C   0  0  0  0  0  0  0  0  0  0  0  0
  -20.5417   -8.1857  -34.3490 C   0  0  0  0  0  0  0  0  0  0  0  0
  -18.1037   -3.4394  -26.9541 C   0  0  0  0  0  0  0  0  0  0  0  0
  -18.2324   -5.6289  -25.9410 C   0  0  0  0  0  0  0  0  0  0  0  0
  -20.1861   -5.7003  -35.5650 C   0  0  0  0  0  0  0  0  0  0  0  0
  -21.2497   -7.0759  -33.8878 C   0  0  0  0  0  0  0  0  0  0  0  0
  -24.6892   -4.4560  -25.5864 C   0  0  0  0  0  0  0  0  0  0  0  0
  -23.1806   -4.6604  -23.7104 C   0  0  0  0  0  0  0  0  0  0  0  0
  -16.7123   -3.4800  -26.8653 C   0  0  0  0  0  0  0  0  0  0  0  0
  -16.8409   -5.6696  -25.8523 C   0  0  0  0  0  0  0  0  0  0  0  0
  -25.7782   -4.5069  -24.7163 C   0  0  0  0  0  0  0  0  0  0  0  0
  -24.2696   -4.7112  -22.8402 C   0  0  0  0  0  0  0  0  0  0  0  0
  -22.3737   -4.3584  -27.3093 C   0  0  0  0  0  0  0  0  0  0  0  0
  -18.8638   -4.5138  -26.4918 C   0  0  0  0  0  0  0  0  0  0  0  0
  -21.0720   -5.8332  -34.4958 C   0  0  0  0  0  0  0  0  0  0  0  0
  -21.0742   -4.3488  -27.7538 C   0  0  0  0  0  0  0  0  0  0  0  0
  -23.3904   -4.5329  -25.0834 C   0  0  0  0  0  0  0  0  0  0  0  0
  -16.0809   -4.5952  -26.3145 C   0  0  0  0  0  0  0  0  0  0  0  0
  -25.5684   -4.6344  -23.3432 C   0  0  0  0  0  0  0  0  0  0  0  0
  -20.3011   -4.4720  -26.5837 C   0  0  0  0  0  0  0  0  0  0  0  0
  -21.1185   -4.7865  -31.6039 C   0  0  0  0  0  0  0  0  0  0  0  0
  -23.5455   -4.7657  -32.2308 C   0  0  0  0  0  0  0  0  0  0  0  0
  -20.6028   -4.2300  -29.1803 C   0  0  0  0  0  0  0  0  0  0  0  0
  -21.8342   -4.6391  -33.9987 C   0  0  0  0  0  0  0  0  0  0  0  0
  -21.5834   -4.8835  -30.1566 C   0  0  0  0  0  0  0  0  0  0  0  0
  -21.0473   -4.5537  -25.4790 N   0  0  0  0  0  0  0  0  0  0  0  0
  -22.3028   -4.4816  -25.9529 N   0  0  0  0  0  0  0  0  0  0  0  0
  -22.1256   -4.7325  -32.5734 N   0  0  0  0  0  0  0  0  0  0  0  0
  -19.9147   -4.7597  -31.8735 O   0  0  0  0  0  0  0  0  0  0  0  0
  -14.3643   -4.6458  -26.2034 Cl  0  0  0  0  0  0  0  0  0  0  0  0
  -27.0441   -4.7020  -22.1643 Br  0  0  0  0  0  0  0  0  0  0  0  0
  -19.1054   -8.9170  -35.7783 H   0  0  0  0  0  0  0  0  0  0  0  0
  -18.7891   -6.7065  -36.8595 H   0  0  0  0  0  0  0  0  0  0  0  0
  -20.6811   -9.1533  -33.8761 H   0  0  0  0  0  0  0  0  0  0  0  0
  -18.5802   -2.5624  -27.3864 H   0  0  0  0  0  0  0  0  0  0  0  0
  -18.8110   -6.4744  -25.5763 H   0  0  0  0  0  0  0  0  0  0  0  0
  -20.0411   -4.7359  -36.0447 H   0  0  0  0  0  0  0  0  0  0  0  0
  -21.9377   -7.1890  -33.0541 H   0  0  0  0  0  0  0  0  0  0  0  0
  -24.8672   -4.3568  -26.6544 H   0  0  0  0  0  0  0  0  0  0  0  0
  -22.1735   -4.7214  -23.3052 H   0  0  0  0  0  0  0  0  0  0  0  0
  -16.1328   -2.6356  -27.2295 H   0  0  0  0  0  0  0  0  0  0  0  0
  -16.3628   -6.5445  -25.4195 H   0  0  0  0  0  0  0  0  0  0  0  0
  -26.7840   -4.4455  -25.1239 H   0  0  0  0  0  0  0  0  0  0  0  0
  -24.0889   -4.8107  -21.7728 H   0  0  0  0  0  0  0  0  0  0  0  0
  -23.3169   -4.2881  -27.8351 H   0  0  0  0  0  0  0  0  0  0  0  0
  -23.9106   -3.7392  -32.0785 H   0  0  0  0  0  0  0  0  0  0  0  0
  -24.1091   -5.2375  -33.0491 H   0  0  0  0  0  0  0  0  0  0  0  0
  -23.6861   -5.3456  -31.3067 H   0  0  0  0  0  0  0  0  0  0  0  0
  -20.4638   -3.1706  -29.4327 H   0  0  0  0  0  0  0  0  0  0  0  0
  -19.6095   -4.6876  -29.2755 H   0  0  0  0  0  0  0  0  0  0  0  0
  -21.2634   -3.7193  -34.1666 H   0  0  0  0  0  0  0  0  0  0  0  0
  -22.7865   -4.5322  -34.5287 H   0  0  0  0  0  0  0  0  0  0  0  0
  -22.5609   -4.3936  -30.0733 H   0  0  0  0  0  0  0  0  0  0  0  0
  -21.6997   -5.9434  -29.9005 H   0  0  0  0  0  0  0  0  0  0  0  0
  1  2  2  0  0  0  0
  1  3  1  0  0  0  0
  2  6  1  0  0  0  0
  3  7  2  0  0  0  0
  4 10  1  0  0  0  0
  4 15  2  0  0  0  0
  5 11  2  0  0  0  0
  5 15  1  0  0  0  0
  6 16  2  0  0  0  0
  7 16  1  0  0  0  0
  8 12  1  0  0  0  0
  8 18  2  0  0  0  0
  9 13  2  0  0  0  0
  9 18  1  0  0  0  0
 10 19  2  0  0  0  0
 11 19  1  0  0  0  0
 12 20  2  0  0  0  0
 13 20  1  0  0  0  0
 14 17  2  0  0  0  0
 14 28  1  0  0  0  0
 15 21  1  0  0  0  0
 16 25  1  0  0  0  0
 17 21  1  0  0  0  0
 17 24  1  0  0  0  0
 18 28  1  0  0  0  0
 19 31  1  0  0  0  0
 20 32  1  0  0  0  0
 21 27  2  0  0  0  0
 22 26  1  0  0  0  0
 22 29  1  0  0  0  0
 22 30  2  0  0  0  0
 23 29  1  0  0  0  0
 24 26  1  0  0  0  0
 25 29  1  0  0  0  0
 27 28  1  0  0  0  0
  1 33  1  0  0  0  0
  2 34  1  0  0  0  0
  3 35  1  0  0  0  0
  4 36  1  0  0  0  0
  5 37  1  0  0  0  0
  6 38  1  0  0  0  0
  7 39  1  0  0  0  0
  8 40  1  0  0  0  0
  9 41  1  0  0  0  0
 10 42  1  0  0  0  0
 11 43  1  0  0  0  0
 12 44  1  0  0  0  0
 13 45  1  0  0  0  0
 14 46  1  0  0  0  0
 23 47  1  0  0  0  0
 23 48  1  0  0  0  0
 23 49  1  0  0  0  0
 24 50  1  0  0  0  0
 24 51  1  0  0  0  0
 25 52  1  0  0  0  0
 25 53  1  0  0  0  0
 26 54  1  0  0  0  0
 26 55  1  0  0  0  0
M  END
> <SMILES>
CN(Cc1ccccc1)C(=O)CCc1cn(nc1-c1ccc(cc1)Cl)-c1ccc(cc1)Br

> <FORMATTED_ID>
H3D-002914

> <MOLFORMULA>
C26H23BrClN3O

> <Exact Mass>
507.07

> <XLogP>
7.67

> <TPSA_NOPS>
38.1

> <s_m_source_file>
ligprep_h3d.sdf

> <i_m_source_file_index>
147

> <i_lp_mmshare_version>
55123

> <i_f3d_flags>
0

> <s_epik_input>
W2NIXTFbY0hdW2NIXVtjSF1bY0hdYzFbQ0gyXU4oW0NIM10pQyg9TylbQ0gyXVtDSDJdYzJbY0hdbigtYzNbY0hdW2NIXWMoQnIpW2NIXVtjSF0zKW5jMi1jNFtjSF1bY0hdYyhDbClbY0hdW2NIXTQ=

> <s_epik_cmdline>
J2VwaWtfcHl0aG9uJywgJy1waHQnLCAnMC41JywgJy1waCcsICc3LjUnLCAnLXRuJywgJzgnLCAnLW1hJywgJzUwMCcsICctaW1hZScsICc8aW5maWxlLm1hZT4nLCAnLW9tYWUnLCAnPG91dGZpbGUubWFlPic=

> <r_lp_tautomer_probability>
1

> <r_epik_Ionization_Penalty>
5.07928e-07

> <r_epik_Ionization_Penalty_Charging>
0

> <r_epik_Ionization_Penalty_Neutral>
5.07928e-07

> <r_epik_State_Penalty>
-0

> <r_epik_Charging_Adjusted_Penalty>
0

> <i_epik_Tot_Q>
0

> <i_epik_Tot_abs_Q>
0

> <s_lp_Force_Field>
S-OPLS

> <r_lp_Energy>
41.1089

> <b_lp_Chiralities_Consistent>
1

> <s_lp_Variant>
ligprep_h3d.sdf:147-1

> <ROCS_ShapeQuery>
_7L13

> <ROCS_TanimotoCombo>
0.818 

> <ROCS_ShapeTanimoto>
0.686 

> <ROCS_ColorTanimoto>
0.132 

> <ROCS_RefTversky>
0.764 

> <ROCS_RefColorTversky>
0.210 

> <ROCS_RefTverskyCombo>
0.974 

> <ROCS_FitTversky>
0.870 

> <ROCS_FitColorTversky>
0.264 

> <ROCS_FitTverskyCombo>
1.134 

> <ROCS_ColorScore>
-1.871

> <ROCS_Overlap>
1259.493

> <ROCS_Rank>
661                 

$$$$
ligprep_h3d.sdf:663_143
  -OEChem-08212117123D

 65 69  0     0  0  0  0  0  0999 V2000
  -16.6930   -5.5899  -26.4221 C   0  0  0  0  0  0  0  0  0  0  0  0
  -22.9242   -4.2707  -28.9104 C   0  0  0  0  0  0  0  0  0  0  0  0
  -20.6248   -4.1109  -25.4524 C   0  0  0  0  0  0  0  0  0  0  0  0
  -16.6012   -4.2038  -26.6503 C   0  0  0  0  0  0  0  0  0  0  0  0
  -20.7830   -4.4719  -27.8377 C   0  0  0  0  0  0  0  0  0  0  0  0
  -22.3454   -4.5737  -30.1454 C   0  0  0  0  0  0  0  0  0  0  0  0
  -20.2007   -4.7767  -29.0797 C   0  0  0  0  0  0  0  0  0  0  0  0
  -22.1667   -4.2137  -27.7437 C   0  0  0  0  0  0  0  0  0  0  0  0
  -20.0200   -4.4145  -26.6636 C   0  0  0  0  0  0  0  0  0  0  0  0
  -20.9821   -4.8271  -30.2305 C   0  0  0  0  0  0  0  0  0  0  0  0
  -21.9844   -3.8735  -25.4598 C   0  0  0  0  0  0  0  0  0  0  0  0
  -18.0423   -5.8455  -26.3988 C   0  0  0  0  0  0  0  0  0  0  0  0
  -20.1720   -6.7221  -35.9758 C   0  0  0  0  0  0  0  0  0  0  0  0
  -22.6796   -3.5511  -24.2255 C   0  0  0  0  0  0  0  0  0  0  0  0
  -19.4064   -4.2907  -33.5645 C   0  0  0  0  0  0  0  0  0  0  0  0
  -19.1989   -6.7104  -32.9263 C   0  0  0  0  0  0  0  0  0  0  0  0
  -20.5231   -4.1225  -32.5329 C   0  0  0  0  0  0  0  0  0  0  0  0
  -20.3170   -6.5299  -31.8974 C   0  0  0  0  0  0  0  0  0  0  0  0
  -18.1953   -5.8950  -35.1087 C   0  0  0  0  0  0  0  0  0  0  0  0
  -19.3180   -5.7227  -34.0943 C   0  0  0  0  0  0  0  0  0  0  0  0
  -23.2207   -4.6187  -31.3560 C   0  0  0  0  0  0  0  0  0  0  0  0
  -18.7374   -5.0635  -29.2589 C   0  0  0  0  0  0  0  0  0  0  0  0
  -18.7762   -7.1107  -26.1999 C   0  0  0  0  0  0  0  0  0  0  0  0
  -24.8521   -3.6726  -22.9780 C   0  0  0  0  0  0  0  0  0  0  0  0
  -25.3450   -4.9819  -22.3894 C   0  0  0  0  0  0  0  0  0  0  0  0
  -17.7970   -3.6197  -26.7639 N   0  0  0  0  0  0  0  0  0  0  0  0
  -22.7564   -3.9188  -26.5697 N   0  0  0  0  0  0  0  0  0  0  0  0
  -18.6529   -4.6438  -26.6066 N   0  0  0  0  0  0  0  0  0  0  0  0
  -18.8034   -6.7039  -36.1145 N   0  0  0  0  0  0  0  0  0  0  0  0
  -20.4084   -5.1304  -31.4716 N   0  0  0  0  0  0  0  0  0  0  0  0
  -24.0212   -3.9412  -24.1296 N   0  0  0  0  0  0  0  0  0  0  0  0
  -20.9795   -7.2477  -36.7284 O   0  0  0  0  0  0  0  0  0  0  0  0
  -22.0974   -2.9363  -23.3134 O   0  0  0  0  0  0  0  0  0  0  0  0
  -20.5180   -6.0304  -34.8432 O   0  0  0  0  0  0  0  0  0  0  0  0
  -26.1326   -5.6669  -23.3549 O   0  0  0  0  0  0  0  0  0  0  0  0
  -15.8913   -6.3024  -26.2933 H   0  0  0  0  0  0  0  0  0  0  0  0
  -23.9943   -4.0729  -28.8593 H   0  0  0  0  0  0  0  0  0  0  0  0
  -20.0564   -4.0589  -24.5280 H   0  0  0  0  0  0  0  0  0  0  0  0
  -15.7128   -3.5951  -26.7386 H   0  0  0  0  0  0  0  0  0  0  0  0
  -19.5956   -3.5882  -34.3862 H   0  0  0  0  0  0  0  0  0  0  0  0
  -18.4513   -4.0010  -33.1061 H   0  0  0  0  0  0  0  0  0  0  0  0
  -18.2278   -6.5859  -32.4314 H   0  0  0  0  0  0  0  0  0  0  0  0
  -19.2451   -7.7404  -33.3001 H   0  0  0  0  0  0  0  0  0  0  0  0
  -20.4566   -3.1134  -32.1067 H   0  0  0  0  0  0  0  0  0  0  0  0
  -21.5025   -4.2079  -33.0216 H   0  0  0  0  0  0  0  0  0  0  0  0
  -21.2748   -6.8526  -32.3251 H   0  0  0  0  0  0  0  0  0  0  0  0
  -20.1070   -7.1771  -31.0369 H   0  0  0  0  0  0  0  0  0  0  0  0
  -17.8325   -4.9589  -35.5416 H   0  0  0  0  0  0  0  0  0  0  0  0
  -17.3450   -6.4578  -34.7097 H   0  0  0  0  0  0  0  0  0  0  0  0
  -23.2679   -3.6301  -31.8263 H   0  0  0  0  0  0  0  0  0  0  0  0
  -22.8419   -5.3389  -32.0911 H   0  0  0  0  0  0  0  0  0  0  0  0
  -24.2390   -4.9322  -31.0960 H   0  0  0  0  0  0  0  0  0  0  0  0
  -18.5516   -6.1343  -29.1404 H   0  0  0  0  0  0  0  0  0  0  0  0
  -18.3994   -4.7507  -30.2512 H   0  0  0  0  0  0  0  0  0  0  0  0
  -18.1416   -4.5148  -28.5234 H   0  0  0  0  0  0  0  0  0  0  0  0
  -18.9879   -7.2834  -25.1320 H   0  0  0  0  0  0  0  0  0  0  0  0
  -19.7393   -7.1193  -26.7382 H   0  0  0  0  0  0  0  0  0  0  0  0
  -18.2100   -7.9807  -26.5744 H   0  0  0  0  0  0  0  0  0  0  0  0
  -25.6876   -3.0417  -23.2975 H   0  0  0  0  0  0  0  0  0  0  0  0
  -24.2516   -3.1271  -22.2438 H   0  0  0  0  0  0  0  0  0  0  0  0
  -25.9753   -4.7865  -21.5163 H   0  0  0  0  0  0  0  0  0  0  0  0
  -24.5127   -5.6279  -22.0914 H   0  0  0  0  0  0  0  0  0  0  0  0
  -18.2932   -7.2007  -36.8376 H   0  0  0  0  0  0  0  0  0  0  0  0
  -24.4663   -4.3840  -24.9268 H   0  0  0  0  0  0  0  0  0  0  0  0
  -26.4262   -6.4940  -22.9403 H   0  0  0  0  0  0  0  0  0  0  0  0
  1  4  1  0  0  0  0
  1 12  2  0  0  0  0
  2  6  2  0  0  0  0
  2  8  1  0  0  0  0
  3  9  1  0  0  0  0
  3 11  2  0  0  0  0
  4 26  2  0  0  0  0
  5  7  1  0  0  0  0
  5  8  1  0  0  0  0
  5  9  2  0  0  0  0
  6 10  1  0  0  0  0
  6 21  1  0  0  0  0
  7 10  2  0  0  0  0
  7 22  1  0  0  0  0
  8 27  2  0  0  0  0
  9 28  1  0  0  0  0
 10 30  1  0  0  0  0
 11 14  1  0  0  0  0
 11 27  1  0  0  0  0
 12 23  1  0  0  0  0
 12 28  1  0  0  0  0
 13 29  1  0  0  0  0
 13 32  2  0  0  0  0
 13 34  1  0  0  0  0
 14 31  1  0  0  0  0
 14 33  2  0  0  0  0
 15 17  1  0  0  0  0
 15 20  1  0  0  0  0
 16 18  1  0  0  0  0
 16 20  1  0  0  0  0
 17 30  1  0  0  0  0
 18 30  1  0  0  0  0
 19 20  1  0  0  0  0
 19 29  1  0  0  0  0
 20 34  1  0  0  0  0
 24 25  1  0  0  0  0
 24 31  1  0  0  0  0
 25 35  1  0  0  0  0
 26 28  1  0  0  0  0
  1 36  1  0  0  0  0
  2 37  1  0  0  0  0
  3 38  1  0  0  0  0
  4 39  1  0  0  0  0
 15 40  1  0  0  0  0
 15 41  1  0  0  0  0
 16 42  1  0  0  0  0
 16 43  1  0  0  0  0
 17 44  1  0  0  0  0
 17 45  1  0  0  0  0
 18 46  1  0  0  0  0
 18 47  1  0  0  0  0
 19 48  1  0  0  0  0
 19 49  1  0  0  0  0
 21 50  1  0  0  0  0
 21 51  1  0  0  0  0
 21 52  1  0  0  0  0
 22 53  1  0  0  0  0
 22 54  1  0  0  0  0
 22 55  1  0  0  0  0
 23 56  1  0  0  0  0
 23 57  1  0  0  0  0
 23 58  1  0  0  0  0
 24 59  1  0  0  0  0
 24 60  1  0  0  0  0
 25 61  1  0  0  0  0
 25 62  1  0  0  0  0
 29 63  1  0  0  0  0
 31 64  1  0  0  0  0
 35 65  1  0  0  0  0
M  END
> <SMILES>
Cc1cc2nc(cc(c2c(c1N1CCC2(CC1)CNC(=O)O2)C)-n1nccc1C)C(=O)NCCO

> <FORMATTED_ID>
H3D-004785

> <MOLFORMULA>
C25H30N6O4

> <Exact Mass>
478.23

> <XLogP>
1.11

> <TPSA_NOPS>
121.6

> <s_m_source_file>
ligprep_h3d.sdf

> <i_m_source_file_index>
663

> <i_lp_mmshare_version>
55123

> <i_f3d_flags>
0

> <s_epik_input>
Tz1DKE8xKVtOSF1bQ0gyXUMxMltDSDJdW0NIMl1OKFtDSDJdW0NIMl0yKWMoYyhbQ0gzXSlbY0hdMyljKFtDSDNdKWMoYzM0KWMoLW41bltjSF1bY0hdYzVbQ0gzXSlbY0hdYyhuNClDKD1PKVtOSF1bQ0gyXVtDSDJdW09IXQ==

> <s_epik_cmdline>
J2VwaWtfcHl0aG9uJywgJy1waHQnLCAnMC41JywgJy1waCcsICc3LjUnLCAnLXRuJywgJzgnLCAnLW1hJywgJzUwMCcsICctaW1hZScsICc8aW5maWxlLm1hZT4nLCAnLW9tYWUnLCAnPG91dGZpbGUubWFlPic=

> <r_lp_tautomer_probability>
1

> <r_epik_Ionization_Penalty>
7.37445e-05

> <r_epik_Ionization_Penalty_Charging>
0

> <r_epik_Ionization_Penalty_Neutral>
7.37445e-05

> <r_epik_State_Penalty>
-0

> <r_epik_Charging_Adjusted_Penalty>
0

> <i_epik_Tot_Q>
0

> <i_epik_Tot_abs_Q>
0

> <s_epik_Chemistry_Notes>
This compound has an ester and may undergo hydrolysis at high or low pH.

> <s_lp_Force_Field>
S-OPLS

> <r_lp_Energy>
55.868

> <b_lp_Chiralities_Consistent>
1

> <s_lp_Variant>
ligprep_h3d.sdf:663-1

> <ROCS_ShapeQuery>
_7L13

> <ROCS_TanimotoCombo>
0.715 

> <ROCS_ShapeTanimoto>
0.624 

> <ROCS_ColorTanimoto>
0.091 

> <ROCS_RefTversky>
0.764 

> <ROCS_RefColorTversky>
0.199 

> <ROCS_RefTverskyCombo>
0.963 

> <ROCS_FitTversky>
0.773 

> <ROCS_FitColorTversky>
0.143 

> <ROCS_FitTverskyCombo>
0.916 

> <ROCS_ColorScore>
-1.831

> <ROCS_Overlap>
1267.187

> <ROCS_Rank>
662                 

$$$$
ligprep_h3d.sdf:5089_1747
  -OEChem-08212117123D

 64 67  0     0  0  0  0  0  0999 V2000
  -24.8719   -5.3984  -25.5067 C   0  0  0  0  0  0  0  0  0  0  0  0
  -23.3591   -3.6972  -24.6978 C   0  0  0  0  0  0  0  0  0  0  0  0
  -25.3484   -5.5913  -24.2100 C   0  0  0  0  0  0  0  0  0  0  0  0
  -23.8355   -3.8901  -23.4011 C   0  0  0  0  0  0  0  0  0  0  0  0
  -21.2573   -5.6522  -25.5631 C   0  0  0  0  0  0  0  0  0  0  0  0
  -19.7282   -4.3918  -26.9453 C   0  0  0  0  0  0  0  0  0  0  0  0
  -20.1957   -6.0477  -24.7494 C   0  0  0  0  0  0  0  0  0  0  0  0
  -18.6666   -4.7872  -26.1315 C   0  0  0  0  0  0  0  0  0  0  0  0
  -24.0584   -3.8648  -28.2260 C   0  0  0  0  0  0  0  0  0  0  0  0
  -23.8773   -4.4514  -25.7506 C   0  0  0  0  0  0  0  0  0  0  0  0
  -24.8302   -4.8372  -23.1572 C   0  0  0  0  0  0  0  0  0  0  0  0
  -21.0235   -4.8243  -26.6612 C   0  0  0  0  0  0  0  0  0  0  0  0
  -18.9004   -5.6152  -25.0335 C   0  0  0  0  0  0  0  0  0  0  0  0
  -23.3836   -4.2516  -27.0939 C   0  0  0  0  0  0  0  0  0  0  0  0
  -23.0736   -3.8408  -29.2318 C   0  0  0  0  0  0  0  0  0  0  0  0
  -20.5034   -5.6028  -35.0028 C   0  0  0  0  0  0  0  0  0  0  0  0
  -20.8583   -3.5350  -33.5931 C   0  0  0  0  0  0  0  0  0  0  0  0
  -20.9298   -5.7773  -32.5644 C   0  0  0  0  0  0  0  0  0  0  0  0
  -22.0747   -3.1415  -32.7539 C   0  0  0  0  0  0  0  0  0  0  0  0
  -22.1468   -5.3389  -31.7505 C   0  0  0  0  0  0  0  0  0  0  0  0
  -18.6009   -6.6393  -36.8727 C   0  0  0  0  0  0  0  0  0  0  0  0
  -18.8602   -8.8164  -35.6472 C   0  0  0  0  0  0  0  0  0  0  0  0
  -20.8346   -7.7979  -36.8187 C   0  0  0  0  0  0  0  0  0  0  0  0
  -23.2533   -3.4845  -30.6791 C   0  0  0  0  0  0  0  0  0  0  0  0
  -25.3393   -5.0438  -21.7709 C   0  0  0  0  0  0  0  0  0  0  0  0
  -19.5461   -7.5124  -36.0486 C   0  0  0  0  0  0  0  0  0  0  0  0
  -21.8652   -4.1849  -28.7785 N   0  0  0  0  0  0  0  0  0  0  0  0
  -22.0862   -4.4286  -27.4755 N   0  0  0  0  0  0  0  0  0  0  0  0
  -20.7972   -4.9855  -33.7845 N   0  0  0  0  0  0  0  0  0  0  0  0
  -22.1063   -3.8921  -31.4895 N   0  0  0  0  0  0  0  0  0  0  0  0
  -20.7715   -5.1249  -36.1037 O   0  0  0  0  0  0  0  0  0  0  0  0
  -19.8800   -6.8121  -34.8447 O   0  0  0  0  0  0  0  0  0  0  0  0
  -17.8810   -5.9949  -24.2519 F   0  0  0  0  0  0  0  0  0  0  0  0
  -26.3097   -6.0010  -21.6808 F   0  0  0  0  0  0  0  0  0  0  0  0
  -24.3738   -5.4316  -20.8858 F   0  0  0  0  0  0  0  0  0  0  0  0
  -25.8900   -3.9135  -21.2397 F   0  0  0  0  0  0  0  0  0  0  0  0
  -25.2858   -5.9943  -26.3167 H   0  0  0  0  0  0  0  0  0  0  0  0
  -22.5837   -2.9549  -24.8719 H   0  0  0  0  0  0  0  0  0  0  0  0
  -26.1232   -6.3316  -24.0291 H   0  0  0  0  0  0  0  0  0  0  0  0
  -23.4258   -3.2979  -22.5872 H   0  0  0  0  0  0  0  0  0  0  0  0
  -22.2617   -5.9975  -25.3304 H   0  0  0  0  0  0  0  0  0  0  0  0
  -19.5321   -3.7455  -27.7974 H   0  0  0  0  0  0  0  0  0  0  0  0
  -20.3771   -6.6930  -23.8949 H   0  0  0  0  0  0  0  0  0  0  0  0
  -17.6581   -4.4501  -26.3516 H   0  0  0  0  0  0  0  0  0  0  0  0
  -25.1104   -3.6330  -28.3135 H   0  0  0  0  0  0  0  0  0  0  0  0
  -20.8903   -3.0086  -34.5513 H   0  0  0  0  0  0  0  0  0  0  0  0
  -19.9309   -3.2386  -33.0877 H   0  0  0  0  0  0  0  0  0  0  0  0
  -20.0085   -5.6354  -31.9863 H   0  0  0  0  0  0  0  0  0  0  0  0
  -21.0054   -6.8431  -32.8031 H   0  0  0  0  0  0  0  0  0  0  0  0
  -22.0125   -2.0668  -32.5442 H   0  0  0  0  0  0  0  0  0  0  0  0
  -22.9918   -3.3088  -33.3343 H   0  0  0  0  0  0  0  0  0  0  0  0
  -23.0664   -5.6185  -32.2816 H   0  0  0  0  0  0  0  0  0  0  0  0
  -22.1388   -5.8868  -30.8004 H   0  0  0  0  0  0  0  0  0  0  0  0
  -19.0895   -5.7022  -37.1628 H   0  0  0  0  0  0  0  0  0  0  0  0
  -17.6880   -6.3983  -36.3183 H   0  0  0  0  0  0  0  0  0  0  0  0
  -18.3174   -7.1415  -37.8047 H   0  0  0  0  0  0  0  0  0  0  0  0
  -19.5347   -9.4460  -35.0557 H   0  0  0  0  0  0  0  0  0  0  0  0
  -17.9874   -8.6196  -35.0142 H   0  0  0  0  0  0  0  0  0  0  0  0
  -18.5322   -9.3865  -36.5224 H   0  0  0  0  0  0  0  0  0  0  0  0
  -21.5127   -8.4242  -36.2278 H   0  0  0  0  0  0  0  0  0  0  0  0
  -21.3595   -6.8742  -37.0831 H   0  0  0  0  0  0  0  0  0  0  0  0
  -20.6233   -8.3541  -37.7392 H   0  0  0  0  0  0  0  0  0  0  0  0
  -24.1455   -3.9707  -31.0886 H   0  0  0  0  0  0  0  0  0  0  0  0
  -23.3849   -2.4046  -30.8045 H   0  0  0  0  0  0  0  0  0  0  0  0
  1  3  1  0  0  0  0
  1 10  2  0  0  0  0
  2  4  2  0  0  0  0
  2 10  1  0  0  0  0
  3 11  2  0  0  0  0
  4 11  1  0  0  0  0
  5  7  1  0  0  0  0
  5 12  2  0  0  0  0
  6  8  2  0  0  0  0
  6 12  1  0  0  0  0
  7 13  2  0  0  0  0
  8 13  1  0  0  0  0
  9 14  2  0  0  0  0
  9 15  1  0  0  0  0
 10 14  1  0  0  0  0
 11 25  1  0  0  0  0
 12 28  1  0  0  0  0
 13 33  1  0  0  0  0
 14 28  1  0  0  0  0
 15 24  1  0  0  0  0
 15 27  2  0  0  0  0
 16 29  1  0  0  0  0
 16 31  2  0  0  0  0
 16 32  1  0  0  0  0
 17 19  1  0  0  0  0
 17 29  1  0  0  0  0
 18 20  1  0  0  0  0
 18 29  1  0  0  0  0
 19 30  1  0  0  0  0
 20 30  1  0  0  0  0
 21 26  1  0  0  0  0
 22 26  1  0  0  0  0
 23 26  1  0  0  0  0
 24 30  1  0  0  0  0
 25 34  1  0  0  0  0
 25 35  1  0  0  0  0
 25 36  1  0  0  0  0
 26 32  1  0  0  0  0
 27 28  1  0  0  0  0
  1 37  1  0  0  0  0
  2 38  1  0  0  0  0
  3 39  1  0  0  0  0
  4 40  1  0  0  0  0
  5 41  1  0  0  0  0
  6 42  1  0  0  0  0
  7 43  1  0  0  0  0
  8 44  1  0  0  0  0
  9 45  1  0  0  0  0
 17 46  1  0  0  0  0
 17 47  1  0  0  0  0
 18 48  1  0  0  0  0
 18 49  1  0  0  0  0
 19 50  1  0  0  0  0
 19 51  1  0  0  0  0
 20 52  1  0  0  0  0
 20 53  1  0  0  0  0
 21 54  1  0  0  0  0
 21 55  1  0  0  0  0
 21 56  1  0  0  0  0
 22 57  1  0  0  0  0
 22 58  1  0  0  0  0
 22 59  1  0  0  0  0
 23 60  1  0  0  0  0
 23 61  1  0  0  0  0
 23 62  1  0  0  0  0
 24 63  1  0  0  0  0
 24 64  1  0  0  0  0
M  END
> <SMILES>
CC(C)(C)OC(=O)N1CCN(CC1)Cc1cc(n(n1)-c1ccc(cc1)F)-c1ccc(cc1)C(F)(F)F

> <FORMATTED_ID>
H3D-012490

> <MOLFORMULA>
C26H28F4N4O2

> <Exact Mass>
504.21

> <XLogP>
6.06

> <TPSA_NOPS>
50.6

> <s_m_source_file>
ligprep_h3d.sdf

> <i_m_source_file_index>
5089

> <i_lp_mmshare_version>
55123

> <i_f3d_flags>
0

> <s_epik_input>
W0NIM11DKFtDSDNdKShbQ0gzXSlPQyg9TylOMVtDSDJdW0NIMl1OKFtDSDJdW0NIMl0xKVtDSDJdYzJbY0hdYygtYzNbY0hdW2NIXWMoQyhGKShGKUYpW2NIXVtjSF0zKW4objIpLWM0W2NIXVtjSF1jKEYpW2NIXVtjSF00

> <s_epik_cmdline>
J2VwaWtfcHl0aG9uJywgJy1waHQnLCAnMC41JywgJy1waCcsICc3LjUnLCAnLXRuJywgJzgnLCAnLW1hJywgJzUwMCcsICctaW1hZScsICc8aW5maWxlLm1hZT4nLCAnLW9tYWUnLCAnPG91dGZpbGUubWFlPic=

> <r_lp_tautomer_probability>
1

> <r_epik_Ionization_Penalty>
0.177279

> <r_epik_Ionization_Penalty_Charging>
0

> <r_epik_Ionization_Penalty_Neutral>
0.177279

> <r_epik_State_Penalty>
0.166554

> <r_epik_Charging_Adjusted_Penalty>
0.166554

> <i_epik_Tot_Q>
0

> <i_epik_Tot_abs_Q>
0

> <s_epik_Chemistry_Notes>
This compound has an ester and may undergo hydrolysis at high or low pH.

> <s_lp_Force_Field>
S-OPLS

> <r_lp_Energy>
50.9858

> <b_lp_Chiralities_Consistent>
1

> <s_lp_Variant>
ligprep_h3d.sdf:5089-1

> <ROCS_ShapeQuery>
_7L13

> <ROCS_TanimotoCombo>
0.721 

> <ROCS_ShapeTanimoto>
0.619 

> <ROCS_ColorTanimoto>
0.102 

> <ROCS_RefTversky>
0.764 

> <ROCS_RefColorTversky>
0.175 

> <ROCS_RefTverskyCombo>
0.939 

> <ROCS_FitTversky>
0.766 

> <ROCS_FitColorTversky>
0.195 

> <ROCS_FitTverskyCombo>
0.961 

> <ROCS_ColorScore>
-1.570

> <ROCS_Overlap>
1267.838

> <ROCS_Rank>
663                 

$$$$
ligprep_h3d.sdf:744_1935
  -OEChem-08212117123D

 61 65  0     0  0  0  0  0  0999 V2000
  -21.0690   -3.9723  -32.4734 C   0  0  0  0  0  0  0  0  0  0  0  0
  -20.3826   -6.2009  -31.8415 C   0  0  0  0  0  0  0  0  0  0  0  0
  -20.5901   -4.1910  -33.7650 C   0  0  0  0  0  0  0  0  0  0  0  0
  -19.9038   -6.4197  -33.1332 C   0  0  0  0  0  0  0  0  0  0  0  0
  -16.7409   -4.7807  -26.8182 C   0  0  0  0  0  0  0  0  0  0  0  0
  -23.2980   -4.2334  -28.6841 C   0  0  0  0  0  0  0  0  0  0  0  0
  -20.7892   -4.4450  -25.3779 C   0  0  0  0  0  0  0  0  0  0  0  0
  -17.1673   -6.1159  -26.6870 C   0  0  0  0  0  0  0  0  0  0  0  0
  -21.1063   -4.6012  -27.7695 C   0  0  0  0  0  0  0  0  0  0  0  0
  -20.9652   -4.9772  -31.5116 C   0  0  0  0  0  0  0  0  0  0  0  0
  -21.4643   -4.7495  -30.1656 C   0  0  0  0  0  0  0  0  0  0  0  0
  -22.8082   -4.4542  -29.9738 C   0  0  0  0  0  0  0  0  0  0  0  0
  -20.6133   -4.8233  -29.0666 C   0  0  0  0  0  0  0  0  0  0  0  0
  -22.4697   -4.3010  -27.5672 C   0  0  0  0  0  0  0  0  0  0  0  0
  -20.2719   -4.6692  -26.6456 C   0  0  0  0  0  0  0  0  0  0  0  0
  -20.0075   -5.4147  -34.0950 C   0  0  0  0  0  0  0  0  0  0  0  0
  -22.1356   -4.1580  -25.2796 C   0  0  0  0  0  0  0  0  0  0  0  0
  -17.9025   -4.0478  -26.8184 C   0  0  0  0  0  0  0  0  0  0  0  0
  -22.7412   -3.9142  -23.9817 C   0  0  0  0  0  0  0  0  0  0  0  0
  -18.6630   -7.2231  -37.1013 C   0  0  0  0  0  0  0  0  0  0  0  0
  -19.9165   -8.1042  -35.6887 C   0  0  0  0  0  0  0  0  0  0  0  0
  -18.9530   -6.9104  -35.6267 C   0  0  0  0  0  0  0  0  0  0  0  0
  -23.7655   -4.3614  -31.1194 C   0  0  0  0  0  0  0  0  0  0  0  0
  -19.1734   -5.1470  -29.3515 C   0  0  0  0  0  0  0  0  0  0  0  0
  -18.1187   -2.5916  -26.9263 C   0  0  0  0  0  0  0  0  0  0  0  0
  -24.8378   -4.0595  -22.6127 C   0  0  0  0  0  0  0  0  0  0  0  0
  -18.4960   -6.2277  -26.6094 N   0  0  0  0  0  0  0  0  0  0  0  0
  -22.9745   -4.0829  -26.3382 N   0  0  0  0  0  0  0  0  0  0  0  0
  -18.9146   -4.9533  -26.6920 N   0  0  0  0  0  0  0  0  0  0  0  0
  -24.0896   -4.2615  -23.8327 N   0  0  0  0  0  0  0  0  0  0  0  0
  -19.1958   -8.5758  -36.8805 N   0  3  0  0  0  0  0  0  0  0  0  0
  -22.0799   -3.3994  -23.0616 O   0  0  0  0  0  0  0  0  0  0  0  0
  -19.5409   -5.6280  -35.3555 O   0  0  0  0  0  0  0  0  0  0  0  0
  -21.5206   -3.0132  -32.2314 H   0  0  0  0  0  0  0  0  0  0  0  0
  -20.2945   -6.9942  -31.1031 H   0  0  0  0  0  0  0  0  0  0  0  0
  -20.6739   -3.4045  -34.5100 H   0  0  0  0  0  0  0  0  0  0  0  0
  -19.4511   -7.3749  -33.3846 H   0  0  0  0  0  0  0  0  0  0  0  0
  -15.7317   -4.4044  -26.9005 H   0  0  0  0  0  0  0  0  0  0  0  0
  -24.3542   -4.0028  -28.5485 H   0  0  0  0  0  0  0  0  0  0  0  0
  -20.1645   -4.4916  -24.4901 H   0  0  0  0  0  0  0  0  0  0  0  0
  -16.5650   -7.0120  -26.6446 H   0  0  0  0  0  0  0  0  0  0  0  0
  -19.2532   -6.6544  -37.8273 H   0  0  0  0  0  0  0  0  0  0  0  0
  -17.6090   -7.2155  -37.3897 H   0  0  0  0  0  0  0  0  0  0  0  0
  -19.8641   -8.8001  -34.8478 H   0  0  0  0  0  0  0  0  0  0  0  0
  -20.9609   -7.8546  -35.9028 H   0  0  0  0  0  0  0  0  0  0  0  0
  -18.0899   -7.0834  -34.9733 H   0  0  0  0  0  0  0  0  0  0  0  0
  -23.7991   -3.3353  -31.5012 H   0  0  0  0  0  0  0  0  0  0  0  0
  -23.4694   -5.0306  -31.9355 H   0  0  0  0  0  0  0  0  0  0  0  0
  -24.7761   -4.6559  -30.8132 H   0  0  0  0  0  0  0  0  0  0  0  0
  -19.0258   -6.2296  -29.3287 H   0  0  0  0  0  0  0  0  0  0  0  0
  -18.8785   -4.7667  -30.3335 H   0  0  0  0  0  0  0  0  0  0  0  0
  -18.5183   -4.6811  -28.6100 H   0  0  0  0  0  0  0  0  0  0  0  0
  -18.2294   -2.2833  -27.9788 H   0  0  0  0  0  0  0  0  0  0  0  0
  -19.0234   -2.2663  -26.3849 H   0  0  0  0  0  0  0  0  0  0  0  0
  -17.2819   -2.0161  -26.4946 H   0  0  0  0  0  0  0  0  0  0  0  0
  -24.8093   -4.9780  -22.0082 H   0  0  0  0  0  0  0  0  0  0  0  0
  -24.3920   -3.2313  -22.0423 H   0  0  0  0  0  0  0  0  0  0  0  0
  -25.8816   -3.8150  -22.8591 H   0  0  0  0  0  0  0  0  0  0  0  0
  -24.6001   -4.6196  -24.6332 H   0  0  0  0  0  0  0  0  0  0  0  0
  -19.8004   -8.9237  -37.6344 H   0  0  0  0  0  0  0  0  0  0  0  0
  -18.4696   -9.2730  -36.6709 H   0  0  0  0  0  0  0  0  0  0  0  0
  1  3  1  0  0  0  0
  1 10  2  0  0  0  0
  2  4  2  0  0  0  0
  2 10  1  0  0  0  0
  3 16  2  0  0  0  0
  4 16  1  0  0  0  0
  5  8  1  0  0  0  0
  5 18  2  0  0  0  0
  6 12  2  0  0  0  0
  6 14  1  0  0  0  0
  7 15  1  0  0  0  0
  7 17  2  0  0  0  0
  8 27  2  0  0  0  0
  9 13  1  0  0  0  0
  9 14  1  0  0  0  0
  9 15  2  0  0  0  0
 10 11  1  0  0  0  0
 11 12  1  0  0  0  0
 11 13  2  0  0  0  0
 12 23  1  0  0  0  0
 13 24  1  0  0  0  0
 14 28  2  0  0  0  0
 15 29  1  0  0  0  0
 16 33  1  0  0  0  0
 17 19  1  0  0  0  0
 17 28  1  0  0  0  0
 18 25  1  0  0  0  0
 18 29  1  0  0  0  0
 19 30  1  0  0  0  0
 19 32  2  0  0  0  0
 20 22  1  0  0  0  0
 20 31  1  0  0  0  0
 21 22  1  0  0  0  0
 21 31  1  0  0  0  0
 22 33  1  0  0  0  0
 26 30  1  0  0  0  0
 27 29  1  0  0  0  0
  1 34  1  0  0  0  0
  2 35  1  0  0  0  0
  3 36  1  0  0  0  0
  4 37  1  0  0  0  0
  5 38  1  0  0  0  0
  6 39  1  0  0  0  0
  7 40  1  0  0  0  0
  8 41  1  0  0  0  0
 20 42  1  0  0  0  0
 20 43  1  0  0  0  0
 21 44  1  0  0  0  0
 21 45  1  0  0  0  0
 22 46  1  0  0  0  0
 23 47  1  0  0  0  0
 23 48  1  0  0  0  0
 23 49  1  0  0  0  0
 24 50  1  0  0  0  0
 24 51  1  0  0  0  0
 24 52  1  0  0  0  0
 25 53  1  0  0  0  0
 25 54  1  0  0  0  0
 25 55  1  0  0  0  0
 26 56  1  0  0  0  0
 26 57  1  0  0  0  0
 26 58  1  0  0  0  0
 30 59  1  0  0  0  0
 31 60  1  0  0  0  0
 31 61  1  0  0  0  0
M  CHG  1  31   1
M  END
> <SMILES>
CNC(=O)c1cc(c2c(c(c(cc2n1)C)-c1ccc(cc1)OC1CNC1)C)-n1nccc1C

> <FORMATTED_ID>
H3D-005015

> <MOLFORMULA>
C26H27N5O2

> <Exact Mass>
441.22

> <XLogP>
3.5

> <TPSA_NOPS>
81.1

> <s_m_source_file>
ligprep_h3d.sdf

> <i_m_source_file_index>
744

> <i_lp_mmshare_version>
55123

> <i_f3d_flags>
0

> <s_epik_input>
W0NIM11jMVtjSF1bY0hdbm4xLWMyW2NIXWMoQyg9TylbTkhdW0NIM10pbmMoYzIzKVtjSF1jKFtDSDNdKWMoYzNbQ0gzXSktYzRbY0hdW2NIXWMoW2NIXVtjSF00KU9bQ0hdNVtDSDJdW05IXVtDSDJdNQ==

> <s_epik_cmdline>
J2VwaWtfcHl0aG9uJywgJy1waHQnLCAnMC41JywgJy1waCcsICc3LjUnLCAnLXRuJywgJzgnLCAnLW1hJywgJzUwMCcsICctaW1hZScsICc8aW5maWxlLm1hZT4nLCAnLW9tYWUnLCAnPG91dGZpbGUubWFlPic=

> <r_lp_tautomer_probability>
1

> <r_epik_Ionization_Penalty>
0.0915017

> <r_epik_Ionization_Penalty_Charging>
0.0914845

> <r_epik_Ionization_Penalty_Neutral>
1.72613e-05

> <r_epik_State_Penalty>
0.0818147

> <r_epik_Charging_Adjusted_Penalty>
0.173299

> <i_epik_Tot_Q>
1

> <i_epik_Tot_abs_Q>
1

> <s_lp_Force_Field>
S-OPLS

> <r_lp_Energy>
71.1345

> <b_lp_Chiralities_Consistent>
1

> <s_lp_Variant>
ligprep_h3d.sdf:744-1

> <ROCS_ShapeQuery>
_7L13

> <ROCS_TanimotoCombo>
0.757 

> <ROCS_ShapeTanimoto>
0.650 

> <ROCS_ColorTanimoto>
0.107 

> <ROCS_RefTversky>
0.764 

> <ROCS_RefColorTversky>
0.222 

> <ROCS_RefTverskyCombo>
0.985 

> <ROCS_FitTversky>
0.814 

> <ROCS_FitColorTversky>
0.171 

> <ROCS_FitTverskyCombo>
0.985 

> <ROCS_ColorScore>
-2.028

> <ROCS_Overlap>
1263.679

> <ROCS_Rank>
664                 

$$$$
ligprep_h3d.sdf:4419_394
  -OEChem-08212117123D

 56 60  0     1  0  0  0  0  0999 V2000
  -24.6962   -5.1977  -25.2880 C   0  0  0  0  0  0  0  0  0  0  0  0
  -25.7833   -5.2239  -24.4144 C   0  0  0  0  0  0  0  0  0  0  0  0
  -18.9029   -4.3876  -26.6032 C   0  0  0  0  0  0  0  0  0  0  0  0
  -23.4362   -3.9063  -23.6813 C   0  0  0  0  0  0  0  0  0  0  0  0
  -18.4678   -4.3960  -27.9207 C   0  0  0  0  0  0  0  0  0  0  0  0
  -18.8226   -9.2754  -37.1349 C   0  0  0  0  0  0  0  0  0  0  0  0
  -19.7793   -9.3842  -36.1498 C   0  0  0  0  0  0  0  0  0  0  0  0
  -23.5226   -4.5389  -24.9214 C   0  0  0  0  0  0  0  0  0  0  0  0
  -21.1505   -4.4954  -27.5562 C   0  0  0  0  0  0  0  0  0  0  0  0
  -20.2835   -4.4397  -26.4697 C   0  0  0  0  0  0  0  0  0  0  0  0
  -25.6969   -4.5913  -23.1743 C   0  0  0  0  0  0  0  0  0  0  0  0
  -24.5233   -3.9325  -22.8077 C   0  0  0  0  0  0  0  0  0  0  0  0
  -18.8501   -6.9998  -36.9105 C   0  0  0  0  0  0  0  0  0  0  0  0
  -20.6118   -4.4992  -28.8432 C   0  0  0  0  0  0  0  0  0  0  0  0
  -19.8073   -7.1084  -35.9259 C   0  0  0  0  0  0  0  0  0  0  0  0
  -22.3979   -4.5113  -25.8247 C   0  0  0  0  0  0  0  0  0  0  0  0
  -18.3170   -5.7212  -37.3549 C   0  0  0  0  0  0  0  0  0  0  0  0
  -20.0360   -5.7622  -31.5270 C   0  0  0  0  0  0  0  0  0  0  0  0
  -22.1492   -4.5993  -32.2786 C   0  0  0  0  0  0  0  0  0  0  0  0
  -19.5764   -5.8681  -32.9805 C   0  0  0  0  0  0  0  0  0  0  0  0
  -21.6912   -4.7049  -33.7325 C   0  0  0  0  0  0  0  0  0  0  0  0
  -20.9608   -4.5608  -31.3145 C   0  0  1  0  0  0  0  0  0  0  0  0
  -20.7696   -5.9124  -33.9411 C   0  0  1  0  0  0  0  0  0  0  0  0
  -18.3408   -8.0813  -37.5329 N   0  0  0  0  0  0  0  0  0  0  0  0
  -19.2674   -4.4492  -29.0147 N   0  0  0  0  0  0  0  0  0  0  0  0
  -20.2888   -8.3026  -35.5276 N   0  0  0  0  0  0  0  0  0  0  0  0
  -22.4595   -4.5393  -27.1374 N   0  0  0  0  0  0  0  0  0  0  0  0
  -21.1081   -4.4512  -25.3744 N   0  0  0  0  0  0  0  0  0  0  0  0
  -17.3523   -5.7357  -38.3578 N   0  0  0  0  0  0  0  0  0  0  0  0
  -21.4428   -4.5532  -29.9488 N   0  0  0  0  0  0  0  0  0  0  0  0
  -20.2910   -5.9606  -35.3221 N   0  0  0  0  0  0  0  0  0  0  0  0
  -18.6943   -4.6506  -36.8477 O   0  0  0  0  0  0  0  0  0  0  0  0
  -26.7419   -4.6157  -22.3365 F   0  0  0  0  0  0  0  0  0  0  0  0
  -24.4405   -3.3248  -21.6169 F   0  0  0  0  0  0  0  0  0  0  0  0
  -24.7789   -5.6965  -26.2508 H   0  0  0  0  0  0  0  0  0  0  0  0
  -26.6966   -5.7377  -24.6993 H   0  0  0  0  0  0  0  0  0  0  0  0
  -18.2276   -4.3439  -25.7596 H   0  0  0  0  0  0  0  0  0  0  0  0
  -22.5288   -3.3880  -23.3807 H   0  0  0  0  0  0  0  0  0  0  0  0
  -17.4047   -4.3583  -28.1417 H   0  0  0  0  0  0  0  0  0  0  0  0
  -18.4140  -10.1445  -37.6355 H   0  0  0  0  0  0  0  0  0  0  0  0
  -20.1645  -10.3445  -35.8297 H   0  0  0  0  0  0  0  0  0  0  0  0
  -20.5536   -6.6905  -31.2512 H   0  0  0  0  0  0  0  0  0  0  0  0
  -19.1569   -5.6794  -30.8765 H   0  0  0  0  0  0  0  0  0  0  0  0
  -22.7598   -3.6959  -32.1585 H   0  0  0  0  0  0  0  0  0  0  0  0
  -22.7947   -5.4567  -32.0468 H   0  0  0  0  0  0  0  0  0  0  0  0
  -18.9345   -5.0086  -33.2139 H   0  0  0  0  0  0  0  0  0  0  0  0
  -18.9636   -6.7698  -33.1003 H   0  0  0  0  0  0  0  0  0  0  0  0
  -22.5706   -4.7867  -34.3826 H   0  0  0  0  0  0  0  0  0  0  0  0
  -21.1693   -3.7799  -34.0106 H   0  0  0  0  0  0  0  0  0  0  0  0
  -20.3912   -3.6395  -31.4839 H   0  0  0  0  0  0  0  0  0  0  0  0
  -21.3404   -6.8367  -33.7506 H   0  0  0  0  0  0  0  0  0  0  0  0
  -20.8114   -4.4206  -24.4077 H   0  0  0  0  0  0  0  0  0  0  0  0
  -17.0525   -6.6239  -38.7449 H   0  0  0  0  0  0  0  0  0  0  0  0
  -16.9422   -4.8769  -38.7103 H   0  0  0  0  0  0  0  0  0  0  0  0
  -22.4435   -4.5883  -29.7986 H   0  0  0  0  0  0  0  0  0  0  0  0
  -20.3175   -5.1054  -35.8637 H   0  0  0  0  0  0  0  0  0  0  0  0
  1  2  1  0  0  0  0
  1  8  2  0  0  0  0
  2 11  2  0  0  0  0
  3  5  2  0  0  0  0
  3 10  1  0  0  0  0
  4  8  1  0  0  0  0
  4 12  2  0  0  0  0
  5 25  1  0  0  0  0
  6  7  2  0  0  0  0
  6 24  1  0  0  0  0
  7 26  1  0  0  0  0
  8 16  1  0  0  0  0
  9 10  2  0  0  0  0
  9 14  1  0  0  0  0
  9 27  1  0  0  0  0
 10 28  1  0  0  0  0
 11 12  1  0  0  0  0
 11 33  1  0  0  0  0
 12 34  1  0  0  0  0
 13 15  1  0  0  0  0
 13 17  1  0  0  0  0
 13 24  2  0  0  0  0
 14 25  2  0  0  0  0
 14 30  1  0  0  0  0
 15 26  2  0  0  0  0
 15 31  1  0  0  0  0
 16 27  2  0  0  0  0
 16 28  1  0  0  0  0
 17 29  1  0  0  0  0
 17 32  2  0  0  0  0
 18 20  1  0  0  0  0
 18 22  1  0  0  0  0
 19 21  1  0  0  0  0
 19 22  1  0  0  0  0
 20 23  1  0  0  0  0
 21 23  1  0  0  0  0
 22 30  1  0  0  0  0
 23 31  1  0  0  0  0
  1 35  1  0  0  0  0
  2 36  1  0  0  0  0
  3 37  1  0  0  0  0
  4 38  1  0  0  0  0
  5 39  1  0  0  0  0
  6 40  1  0  0  0  0
  7 41  1  0  0  0  0
 18 42  1  0  0  0  0
 18 43  1  0  0  0  0
 19 44  1  0  0  0  0
 19 45  1  0  0  0  0
 20 46  1  0  0  0  0
 20 47  1  0  0  0  0
 21 48  1  0  0  0  0
 21 49  1  0  0  0  0
 22 50  1  0  0  0  0
 23 51  1  0  0  0  0
 28 52  1  0  0  0  0
 29 53  1  0  0  0  0
 29 54  1  0  0  0  0
 30 55  1  0  0  0  0
 31 56  1  0  0  0  0
M  END
> <SMILES>
NC(=O)c1nccnc1N[C@H]1CC[C@@H](CC1)Nc1nccc2[nH]c(nc12)-c1ccc(c(c1)F)F

> <FORMATTED_ID>
H3D-004010

> <MOLFORMULA>
C23H22F2N8O

> <Exact Mass>
464.19

> <XLogP>
2.68

> <TPSA_NOPS>
134.5

> <s_m_source_file>
ligprep_h3d.sdf

> <i_m_source_file_index>
4419

> <i_lp_mmshare_version>
55123

> <i_f3d_flags>
0

> <s_epik_input>
W05IMl1DKD1PKWMxbltjSF1bY0hdbmMxW05IXVtDQEhdMltDSDJdW0NIMl1bQ0BASF0oW0NIMl1bQ0gyXTIpW05IXWMobltjSF1bY0hdMyljKGMzNCluYyhbbkhdNCktYzVbY0hdW2NIXWMoRiljKEYpW2NIXTU=

> <s_epik_cmdline>
J2VwaWtfcHl0aG9uJywgJy1waHQnLCAnMC41JywgJy1waCcsICc3LjUnLCAnLXRuJywgJzgnLCAnLW1hJywgJzUwMCcsICctaW1hZScsICc8aW5maWxlLm1hZT4nLCAnLW9tYWUnLCAnPG91dGZpbGUubWFlPic=

> <r_lp_tautomer_probability>
1

> <r_epik_Ionization_Penalty>
0.552087

> <r_epik_Ionization_Penalty_Charging>
0.55182

> <r_epik_Ionization_Penalty_Neutral>
0.000266503

> <r_epik_State_Penalty>
0.559586

> <r_epik_Charging_Adjusted_Penalty>
1.11141

> <i_epik_Tot_Q>
0

> <i_epik_Tot_abs_Q>
0

> <s_lp_Force_Field>
S-OPLS

> <r_lp_Energy>
56.2505

> <b_lp_Chiralities_Consistent>
1

> <s_lp_Variant>
ligprep_h3d.sdf:4419-2

> <ROCS_ShapeQuery>
_7L13

> <ROCS_TanimotoCombo>
0.776 

> <ROCS_ShapeTanimoto>
0.637 

> <ROCS_ColorTanimoto>
0.139 

> <ROCS_RefTversky>
0.764 

> <ROCS_RefColorTversky>
0.304 

> <ROCS_RefTverskyCombo>
1.067 

> <ROCS_FitTversky>
0.793 

> <ROCS_FitColorTversky>
0.204 

> <ROCS_FitTverskyCombo>
0.997 

> <ROCS_ColorScore>
-2.811

> <ROCS_Overlap>
1265.363

> <ROCS_Rank>
665                 

$$$$
ligprep_h3d.sdf:4971_1149
  -OEChem-08212117123D

 68 72  0     1  0  0  0  0  0999 V2000
  -19.6064   -6.6912  -34.3284 C   0  0  0  0  0  0  0  0  0  0  0  0
  -20.0540   -5.4669  -34.8246 C   0  0  0  0  0  0  0  0  0  0  0  0
  -20.1109   -7.1822  -33.1242 C   0  0  0  0  0  0  0  0  0  0  0  0
  -21.0060   -4.7334  -34.1165 C   0  0  0  0  0  0  0  0  0  0  0  0
  -21.0628   -6.4488  -32.4161 C   0  0  0  0  0  0  0  0  0  0  0  0
  -23.6735   -3.7939  -28.0654 C   0  0  0  0  0  0  0  0  0  0  0  0
  -21.0537   -4.0421  -29.0576 C   0  0  0  0  0  0  0  0  0  0  0  0
  -22.6131   -4.1035  -27.2173 C   0  0  0  0  0  0  0  0  0  0  0  0
  -21.5104   -5.2244  -32.9122 C   0  0  0  0  0  0  0  0  0  0  0  0
  -21.3034   -4.2209  -27.7038 C   0  0  0  0  0  0  0  0  0  0  0  0
  -23.4197   -3.6107  -29.4217 C   0  0  0  0  0  0  0  0  0  0  0  0
  -22.1179   -3.7357  -29.9137 C   0  0  0  0  0  0  0  0  0  0  0  0
  -15.9769   -5.6712  -25.7085 C   0  0  0  0  0  0  0  0  0  0  0  0
  -19.0518   -4.6978  -26.5944 C   0  0  0  0  0  0  0  0  0  0  0  0
  -15.5825   -4.4078  -24.9760 C   0  0  0  0  0  0  0  0  0  0  0  0
  -16.6583   -3.3373  -24.9894 C   0  0  0  0  0  0  0  0  0  0  0  0
  -17.9752   -3.9107  -24.4840 C   0  0  0  0  0  0  0  0  0  0  0  0
  -23.0133   -2.9888  -25.0017 C   0  0  0  0  0  0  0  0  0  0  0  0
  -23.7044   -5.3970  -25.3278 C   0  0  0  0  0  0  0  0  0  0  0  0
  -21.2327   -4.7713  -25.4311 C   0  0  0  0  0  0  0  0  0  0  0  0
  -23.1768   -3.1541  -23.4942 C   0  0  0  0  0  0  0  0  0  0  0  0
  -23.8336   -5.5538  -23.8176 C   0  0  0  0  0  0  0  0  0  0  0  0
  -18.4046   -5.1149  -25.3092 C   0  0  2  0  0  0  0  0  0  0  0  0
  -22.6838   -4.3131  -25.7204 C   0  0  0  0  0  0  0  0  0  0  0  0
  -24.4791   -4.3456  -21.7354 C   0  0  0  0  0  0  0  0  0  0  0  0
  -24.7435   -1.9286  -30.4562 C   0  0  0  0  0  0  0  0  0  0  0  0
  -22.5344   -4.4358  -32.1499 C   0  0  0  0  0  0  0  0  0  0  0  0
  -17.3172   -5.9870  -25.7143 N   0  0  0  0  0  0  0  0  0  0  0  0
  -20.4274   -4.5414  -26.6451 N   0  0  0  0  0  0  0  0  0  0  0  0
  -24.2022   -4.2230  -23.2088 N   0  3  0  0  0  0  0  0  0  0  0  0
  -15.1201   -6.4120  -26.1934 O   0  0  0  0  0  0  0  0  0  0  0  0
  -18.3289   -4.5177  -27.5822 O   0  0  0  0  0  0  0  0  0  0  0  0
  -24.4497   -3.3101  -30.2608 O   0  0  0  0  0  0  0  0  0  0  0  0
  -21.8674   -3.5602  -31.2441 O   0  0  0  0  0  0  0  0  0  0  0  0
  -18.8661   -7.2629  -34.8806 H   0  0  0  0  0  0  0  0  0  0  0  0
  -19.6621   -5.0849  -35.7628 H   0  0  0  0  0  0  0  0  0  0  0  0
  -19.7634   -8.1360  -32.7382 H   0  0  0  0  0  0  0  0  0  0  0  0
  -21.3488   -3.7803  -34.5106 H   0  0  0  0  0  0  0  0  0  0  0  0
  -21.4501   -6.8391  -31.4786 H   0  0  0  0  0  0  0  0  0  0  0  0
  -24.6829   -3.6960  -27.6769 H   0  0  0  0  0  0  0  0  0  0  0  0
  -20.0558   -4.1322  -29.4788 H   0  0  0  0  0  0  0  0  0  0  0  0
  -15.3418   -4.6888  -23.9440 H   0  0  0  0  0  0  0  0  0  0  0  0
  -14.6706   -4.0118  -25.4365 H   0  0  0  0  0  0  0  0  0  0  0  0
  -16.3520   -2.4967  -24.3567 H   0  0  0  0  0  0  0  0  0  0  0  0
  -16.7816   -2.9448  -26.0054 H   0  0  0  0  0  0  0  0  0  0  0  0
  -17.8524   -4.2254  -23.4408 H   0  0  0  0  0  0  0  0  0  0  0  0
  -18.7443   -3.1306  -24.4978 H   0  0  0  0  0  0  0  0  0  0  0  0
  -23.9428   -2.5621  -25.4055 H   0  0  0  0  0  0  0  0  0  0  0  0
  -22.2335   -2.2404  -25.1993 H   0  0  0  0  0  0  0  0  0  0  0  0
  -23.4290   -6.3632  -25.7682 H   0  0  0  0  0  0  0  0  0  0  0  0
  -24.6930   -5.1512  -25.7364 H   0  0  0  0  0  0  0  0  0  0  0  0
  -20.7680   -4.2135  -24.6085 H   0  0  0  0  0  0  0  0  0  0  0  0
  -21.1672   -5.8382  -25.1829 H   0  0  0  0  0  0  0  0  0  0  0  0
  -22.2423   -3.4483  -23.0028 H   0  0  0  0  0  0  0  0  0  0  0  0
  -23.5407   -2.2225  -23.0458 H   0  0  0  0  0  0  0  0  0  0  0  0
  -24.6354   -6.2580  -23.5745 H   0  0  0  0  0  0  0  0  0  0  0  0
  -22.9023   -5.8883  -23.3500 H   0  0  0  0  0  0  0  0  0  0  0  0
  -19.1351   -5.7202  -24.7654 H   0  0  0  0  0  0  0  0  0  0  0  0
  -23.5561   -4.6640  -21.2475 H   0  0  0  0  0  0  0  0  0  0  0  0
  -24.7974   -3.3664  -21.3725 H   0  0  0  0  0  0  0  0  0  0  0  0
  -25.2685   -5.0883  -21.6045 H   0  0  0  0  0  0  0  0  0  0  0  0
  -25.5847   -1.8283  -31.1465 H   0  0  0  0  0  0  0  0  0  0  0  0
  -23.8639   -1.4218  -30.8610 H   0  0  0  0  0  0  0  0  0  0  0  0
  -25.0087   -1.4821  -29.4950 H   0  0  0  0  0  0  0  0  0  0  0  0
  -23.1562   -3.8418  -32.8283 H   0  0  0  0  0  0  0  0  0  0  0  0
  -23.1949   -5.1021  -31.5847 H   0  0  0  0  0  0  0  0  0  0  0  0
  -17.5703   -6.9187  -26.0321 H   0  0  0  0  0  0  0  0  0  0  0  0
  -25.0851   -3.9225  -23.6448 H   0  0  0  0  0  0  0  0  0  0  0  0
  1  2  2  0  0  0  0
  1  3  1  0  0  0  0
  2  4  1  0  0  0  0
  3  5  2  0  0  0  0
  4  9  2  0  0  0  0
  5  9  1  0  0  0  0
  6  8  1  0  0  0  0
  6 11  2  0  0  0  0
  7 10  1  0  0  0  0
  7 12  2  0  0  0  0
  8 10  2  0  0  0  0
  8 24  1  0  0  0  0
  9 27  1  0  0  0  0
 10 29  1  0  0  0  0
 11 12  1  0  0  0  0
 11 33  1  0  0  0  0
 12 34  1  0  0  0  0
 13 15  1  0  0  0  0
 13 28  1  0  0  0  0
 13 31  2  0  0  0  0
 14 23  1  0  0  0  0
 14 29  1  0  0  0  0
 14 32  2  0  0  0  0
 15 16  1  0  0  0  0
 16 17  1  0  0  0  0
 17 23  1  0  0  0  0
 18 21  1  0  0  0  0
 18 24  1  0  0  0  0
 19 22  1  0  0  0  0
 19 24  1  0  0  0  0
 20 24  1  0  0  0  0
 20 29  1  0  0  0  0
 21 30  1  0  0  0  0
 22 30  1  0  0  0  0
 23 28  1  0  0  0  0
 25 30  1  0  0  0  0
 26 33  1  0  0  0  0
 27 34  1  0  0  0  0
  1 35  1  0  0  0  0
  2 36  1  0  0  0  0
  3 37  1  0  0  0  0
  4 38  1  0  0  0  0
  5 39  1  0  0  0  0
  6 40  1  0  0  0  0
  7 41  1  0  0  0  0
 15 42  1  0  0  0  0
 15 43  1  0  0  0  0
 16 44  1  0  0  0  0
 16 45  1  0  0  0  0
 17 46  1  0  0  0  0
 17 47  1  0  0  0  0
 18 48  1  0  0  0  0
 18 49  1  0  0  0  0
 19 50  1  0  0  0  0
 19 51  1  0  0  0  0
 20 52  1  0  0  0  0
 20 53  1  0  0  0  0
 21 54  1  0  0  0  0
 21 55  1  0  0  0  0
 22 56  1  0  0  0  0
 22 57  1  0  0  0  0
 23 58  1  0  0  0  0
 25 59  1  0  0  0  0
 25 60  1  0  0  0  0
 25 61  1  0  0  0  0
 26 62  1  0  0  0  0
 26 63  1  0  0  0  0
 26 64  1  0  0  0  0
 27 65  1  0  0  0  0
 27 66  1  0  0  0  0
 28 67  1  0  0  0  0
 30 68  1  0  0  0  0
M  CHG  1  30   1
M  END
> <SMILES>
COc1cc2c(cc1OCc1ccccc1)N(CC12CCN(C)CC1)C(=O)C1CCCC(=O)N1

> <FORMATTED_ID>
H3D-008596

> <MOLFORMULA>
C27H33N3O4

> <Exact Mass>
463.25

> <XLogP>
4.38

> <TPSA_NOPS>
71.1

> <s_m_source_file>
ligprep_h3d.sdf

> <i_m_source_file_index>
4971

> <i_lp_mmshare_version>
55123

> <i_f3d_flags>
0

> <s_epik_input>
W2NIXTFbY0hdW2NIXVtjSF1bY0hdYzFbQ0gyXU9jKGMoW2NIXTIpT1tDSDNdKVtjSF1jKGMyQzM0W0NIMl1bQ0gyXU4oW0NIM10pW0NIMl1bQ0gyXTQpTihbQ0gyXTMpQyg9TylbQ0BASF01W0NIMl1bQ0gyXVtDSDJdQyg9TylbTkhdNQ==

> <s_epik_cmdline>
J2VwaWtfcHl0aG9uJywgJy1waHQnLCAnMC41JywgJy1waCcsICc3LjUnLCAnLXRuJywgJzgnLCAnLW1hJywgJzUwMCcsICctaW1hZScsICc8aW5maWxlLm1hZT4nLCAnLW9tYWUnLCAnPG91dGZpbGUubWFlPic=

> <r_lp_tautomer_probability>
1

> <r_epik_Ionization_Penalty>
0.011662

> <r_epik_Ionization_Penalty_Charging>
0.0116612

> <r_epik_Ionization_Penalty_Neutral>
8.07458e-07

> <r_epik_State_Penalty>
0.00898627

> <r_epik_Charging_Adjusted_Penalty>
0.0206475

> <i_epik_Tot_Q>
1

> <i_epik_Tot_abs_Q>
1

> <s_lp_Force_Field>
S-OPLS

> <r_lp_Energy>
81.5883

> <b_lp_Chiralities_Consistent>
1

> <s_lp_Variant>
ligprep_h3d.sdf:4971-1

> <ROCS_ShapeQuery>
_7L13

> <ROCS_TanimotoCombo>
0.745 

> <ROCS_ShapeTanimoto>
0.650 

> <ROCS_ColorTanimoto>
0.095 

> <ROCS_RefTversky>
0.764 

> <ROCS_RefColorTversky>
0.199 

> <ROCS_RefTverskyCombo>
0.963 

> <ROCS_FitTversky>
0.813 

> <ROCS_FitColorTversky>
0.154 

> <ROCS_FitTverskyCombo>
0.967 

> <ROCS_ColorScore>
-1.824

> <ROCS_Overlap>
1263.674

> <ROCS_Rank>
666                 

$$$$
ligprep_h3d.sdf:5476_201
  -OEChem-08212117123D

 55 59  0     0  0  0  0  0  0999 V2000
  -17.8377   -5.9809  -26.3280 C   0  0  0  0  0  0  0  0  0  0  0  0
  -19.0794   -6.5181  -25.9884 C   0  0  0  0  0  0  0  0  0  0  0  0
  -17.6333   -4.6025  -26.2648 C   0  0  0  0  0  0  0  0  0  0  0  0
  -20.1167   -5.6770  -25.5858 C   0  0  0  0  0  0  0  0  0  0  0  0
  -18.6706   -3.7614  -25.8621 C   0  0  0  0  0  0  0  0  0  0  0  0
  -23.4744   -4.0633  -23.2111 C   0  0  0  0  0  0  0  0  0  0  0  0
  -22.2253   -6.1467  -33.4136 C   0  0  0  0  0  0  0  0  0  0  0  0
  -20.2952   -4.7177  -33.1497 C   0  0  0  0  0  0  0  0  0  0  0  0
  -24.6949   -4.4495  -22.6473 C   0  0  0  0  0  0  0  0  0  0  0  0
  -21.4249   -7.1162  -34.0178 C   0  0  0  0  0  0  0  0  0  0  0  0
  -19.4948   -5.6872  -33.7539 C   0  0  0  0  0  0  0  0  0  0  0  0
  -25.5853   -5.0780  -24.8245 C   0  0  0  0  0  0  0  0  0  0  0  0
  -19.9123   -4.2986  -25.5226 C   0  0  0  0  0  0  0  0  0  0  0  0
  -24.3658   -4.6946  -25.4078 C   0  0  0  0  0  0  0  0  0  0  0  0
  -23.3499   -4.2014  -24.5939 C   0  0  0  0  0  0  0  0  0  0  0  0
  -21.6605   -4.9474  -32.9796 C   0  0  0  0  0  0  0  0  0  0  0  0
  -20.0597   -6.8865  -34.1879 C   0  0  0  0  0  0  0  0  0  0  0  0
  -25.7329   -4.9482  -23.4378 C   0  0  0  0  0  0  0  0  0  0  0  0
  -22.7394   -4.2551  -26.7197 C   0  0  0  0  0  0  0  0  0  0  0  0
  -21.4498   -5.1812  -28.6538 C   0  0  0  0  0  0  0  0  0  0  0  0
  -21.7090   -2.7497  -28.4057 C   0  0  0  0  0  0  0  0  0  0  0  0
  -22.2559   -5.1576  -29.9505 C   0  0  0  0  0  0  0  0  0  0  0  0
  -22.5152   -2.6981  -29.7056 C   0  0  0  0  0  0  0  0  0  0  0  0
  -21.0310   -3.3906  -25.0885 C   0  0  0  0  0  0  0  0  0  0  0  0
  -23.9683   -4.7208  -26.7249 N   0  0  0  0  0  0  0  0  0  0  0  0
  -22.3219   -3.9284  -25.4595 N   0  0  0  0  0  0  0  0  0  0  0  0
  -21.8779   -4.0733  -27.7958 N   0  0  0  0  0  0  0  0  0  0  0  0
  -22.0973   -3.8200  -30.6041 N   0  0  0  0  0  0  0  0  0  0  0  0
  -22.3061   -2.4351  -32.7683 O   0  0  0  0  0  0  0  0  0  0  0  0
  -24.0429   -4.1858  -32.2527 O   0  0  0  0  0  0  0  0  0  0  0  0
  -22.6733   -3.7205  -32.2150 S   0  0  0  0  0  0  0  0  0  0  0  0
  -19.0722   -8.0826  -34.9334 Cl  0  0  0  0  0  0  0  0  0  0  0  0
  -27.2190   -5.4113  -22.6979 Cl  0  0  0  0  0  0  0  0  0  0  0  0
  -17.0297   -6.6361  -26.6402 H   0  0  0  0  0  0  0  0  0  0  0  0
  -19.2384   -7.5915  -26.0366 H   0  0  0  0  0  0  0  0  0  0  0  0
  -16.6664   -4.1840  -26.5280 H   0  0  0  0  0  0  0  0  0  0  0  0
  -21.0808   -6.1044  -25.3233 H   0  0  0  0  0  0  0  0  0  0  0  0
  -18.5023   -2.6887  -25.8160 H   0  0  0  0  0  0  0  0  0  0  0  0
  -22.6693   -3.6765  -22.5966 H   0  0  0  0  0  0  0  0  0  0  0  0
  -23.2878   -6.3359  -33.2859 H   0  0  0  0  0  0  0  0  0  0  0  0
  -19.8449   -3.7869  -32.8153 H   0  0  0  0  0  0  0  0  0  0  0  0
  -24.8225   -4.3535  -21.5709 H   0  0  0  0  0  0  0  0  0  0  0  0
  -21.8787   -8.0460  -34.3511 H   0  0  0  0  0  0  0  0  0  0  0  0
  -18.4325   -5.4945  -33.8800 H   0  0  0  0  0  0  0  0  0  0  0  0
  -26.3893   -5.4652  -25.4433 H   0  0  0  0  0  0  0  0  0  0  0  0
  -21.6080   -6.1284  -28.1308 H   0  0  0  0  0  0  0  0  0  0  0  0
  -20.3870   -5.0974  -28.8951 H   0  0  0  0  0  0  0  0  0  0  0  0
  -20.6602   -2.5566  -28.6310 H   0  0  0  0  0  0  0  0  0  0  0  0
  -22.0637   -1.9838  -27.7152 H   0  0  0  0  0  0  0  0  0  0  0  0
  -21.9226   -5.9463  -30.6318 H   0  0  0  0  0  0  0  0  0  0  0  0
  -23.3112   -5.3223  -29.7160 H   0  0  0  0  0  0  0  0  0  0  0  0
  -23.5787   -2.8022  -29.4671 H   0  0  0  0  0  0  0  0  0  0  0  0
  -22.3678   -1.7396  -30.2154 H   0  0  0  0  0  0  0  0  0  0  0  0
  -21.0209   -3.2413  -24.0020 H   0  0  0  0  0  0  0  0  0  0  0  0
  -20.9317   -2.3959  -25.5399 H   0  0  0  0  0  0  0  0  0  0  0  0
  1  2  2  0  0  0  0
  1  3  1  0  0  0  0
  2  4  1  0  0  0  0
  3  5  2  0  0  0  0
  4 13  2  0  0  0  0
  5 13  1  0  0  0  0
  6  9  1  0  0  0  0
  6 15  2  0  0  0  0
  7 10  1  0  0  0  0
  7 16  2  0  0  0  0
  8 11  2  0  0  0  0
  8 16  1  0  0  0  0
  9 18  2  0  0  0  0
 10 17  2  0  0  0  0
 11 17  1  0  0  0  0
 12 14  2  0  0  0  0
 12 18  1  0  0  0  0
 13 24  1  0  0  0  0
 14 15  1  0  0  0  0
 14 25  1  0  0  0  0
 15 26  1  0  0  0  0
 16 31  1  0  0  0  0
 17 32  1  0  0  0  0
 18 33  1  0  0  0  0
 19 25  2  0  0  0  0
 19 26  1  0  0  0  0
 19 27  1  0  0  0  0
 20 22  1  0  0  0  0
 20 27  1  0  0  0  0
 21 23  1  0  0  0  0
 21 27  1  0  0  0  0
 22 28  1  0  0  0  0
 23 28  1  0  0  0  0
 24 26  1  0  0  0  0
 28 31  1  0  0  0  0
 29 31  2  0  0  0  0
 30 31  2  0  0  0  0
  1 34  1  0  0  0  0
  2 35  1  0  0  0  0
  3 36  1  0  0  0  0
  4 37  1  0  0  0  0
  5 38  1  0  0  0  0
  6 39  1  0  0  0  0
  7 40  1  0  0  0  0
  8 41  1  0  0  0  0
  9 42  1  0  0  0  0
 10 43  1  0  0  0  0
 11 44  1  0  0  0  0
 12 45  1  0  0  0  0
 20 46  1  0  0  0  0
 20 47  1  0  0  0  0
 21 48  1  0  0  0  0
 21 49  1  0  0  0  0
 22 50  1  0  0  0  0
 22 51  1  0  0  0  0
 23 52  1  0  0  0  0
 23 53  1  0  0  0  0
 24 54  1  0  0  0  0
 24 55  1  0  0  0  0
M  END
> <SMILES>
Clc1ccc(cc1)S(=O)(=O)N1CCN(CC1)c1nc2cc(ccc2n1Cc1ccccc1)Cl

> <FORMATTED_ID>
H3D-003521

> <MOLFORMULA>
C24H22Cl2N4O2S

> <Exact Mass>
500.08

> <XLogP>
6.24

> <TPSA_NOPS>
66.8

> <s_m_source_file>
ligprep_h3d.sdf

> <i_m_source_file_index>
5476

> <i_lp_mmshare_version>
55123

> <i_f3d_flags>
0

> <s_epik_input>
Q2xjMVtjSF1bY0hdYyhbY0hdW2NIXTEpUyg9TykoPU8pTjJbQ0gyXVtDSDJdTihbQ0gyXVtDSDJdMiljKG4zKW4oYyhjMzQpW2NIXVtjSF1jKENsKVtjSF00KVtDSDJdYzVbY0hdW2NIXVtjSF1bY0hdW2NIXTU=

> <s_epik_cmdline>
J2VwaWtfcHl0aG9uJywgJy1waHQnLCAnMC41JywgJy1waCcsICc3LjUnLCAnLXRuJywgJzgnLCAnLW1hJywgJzUwMCcsICctaW1hZScsICc8aW5maWxlLm1hZT4nLCAnLW9tYWUnLCAnPG91dGZpbGUubWFlPic=

> <r_epik_Ionization_Penalty>
0.0297091

> <r_epik_Ionization_Penalty_Charging>
0

> <r_epik_Ionization_Penalty_Neutral>
0.0297091

> <r_epik_State_Penalty>
0.0244553

> <r_epik_Charging_Adjusted_Penalty>
0.0244553

> <i_epik_Tot_Q>
0

> <i_epik_Tot_abs_Q>
0

> <s_lp_Force_Field>
S-OPLS

> <r_lp_Energy>
40.3708

> <b_lp_Chiralities_Consistent>
1

> <s_lp_Variant>
ligprep_h3d.sdf:5476-1

> <ROCS_ShapeQuery>
_7L13

> <ROCS_TanimotoCombo>
0.733 

> <ROCS_ShapeTanimoto>
0.668 

> <ROCS_ColorTanimoto>
0.065 

> <ROCS_RefTversky>
0.764 

> <ROCS_RefColorTversky>
0.116 

> <ROCS_RefTverskyCombo>
0.880 

> <ROCS_FitTversky>
0.843 

> <ROCS_FitColorTversky>
0.129 

> <ROCS_FitTverskyCombo>
0.972 

> <ROCS_ColorScore>
-1.040

> <ROCS_Overlap>
1261.354

> <ROCS_Rank>
667                 

$$$$
ligprep_h3d.sdf:911_1773
  -OEChem-08212117123D

 68 72  0     1  0  0  0  0  0999 V2000
  -17.1865   -5.8280  -26.3712 C   0  0  0  0  0  0  0  0  0  0  0  0
  -23.5212   -4.0147  -28.1963 C   0  0  0  0  0  0  0  0  0  0  0  0
  -21.0696   -4.6630  -24.9039 C   0  0  0  0  0  0  0  0  0  0  0  0
  -17.8692   -7.0484  -26.2091 C   0  0  0  0  0  0  0  0  0  0  0  0
  -18.4049   -5.9662  -35.0465 C   0  0  0  0  0  0  0  0  0  0  0  0
  -21.4376   -4.7971  -27.2896 C   0  0  0  0  0  0  0  0  0  0  0  0
  -23.0996   -4.3532  -29.4845 C   0  0  0  0  0  0  0  0  0  0  0  0
  -21.0133   -5.1377  -28.5852 C   0  0  0  0  0  0  0  0  0  0  0  0
  -22.7110   -4.2261  -27.0840 C   0  0  0  0  0  0  0  0  0  0  0  0
  -20.6216   -5.0099  -26.1703 C   0  0  0  0  0  0  0  0  0  0  0  0
  -21.8441   -4.9154  -29.6796 C   0  0  0  0  0  0  0  0  0  0  0  0
  -22.3302   -4.1102  -24.8022 C   0  0  0  0  0  0  0  0  0  0  0  0
  -19.7307   -6.2388  -34.8207 C   0  0  0  0  0  0  0  0  0  0  0  0
  -18.1783   -4.8778  -26.3763 C   0  0  0  0  0  0  0  0  0  0  0  0
  -22.8601   -3.7252  -23.5053 C   0  0  0  0  0  0  0  0  0  0  0  0
  -20.3594   -4.5202  -33.0696 C   0  0  0  0  0  0  0  0  0  0  0  0
  -20.7253   -6.9587  -32.6057 C   0  0  0  0  0  0  0  0  0  0  0  0
  -21.3528   -4.1684  -31.9625 C   0  0  0  0  0  0  0  0  0  0  0  0
  -21.7119   -6.5938  -31.4953 C   0  0  0  0  0  0  0  0  0  0  0  0
  -20.6890   -5.8817  -33.7001 C   0  0  0  0  0  0  0  0  0  0  0  0
  -24.0233   -4.0991  -30.6316 C   0  0  0  0  0  0  0  0  0  0  0  0
  -19.6741   -5.7489  -28.8828 C   0  0  0  0  0  0  0  0  0  0  0  0
  -18.1007   -3.4100  -26.5120 C   0  0  0  0  0  0  0  0  0  0  0  0
  -27.1792   -3.2324  -21.0116 C   0  0  0  0  0  0  0  0  0  0  0  0
  -24.9278   -3.4212  -22.1187 C   0  0  0  0  0  0  0  0  0  0  0  0
  -26.4331   -3.6157  -22.2825 C   0  0  1  0  0  0  0  0  0  0  0  0
  -18.0137   -6.5340  -36.2272 N   0  0  0  0  0  0  0  0  0  0  0  0
  -19.1924   -6.8909  -26.1177 N   0  0  0  0  0  0  0  0  0  0  0  0
  -23.1485   -3.8883  -25.8562 N   0  0  0  0  0  0  0  0  0  0  0  0
  -19.0650   -7.1567  -36.7488 N   0  0  0  0  0  0  0  0  0  0  0  0
  -20.0935   -6.9784  -35.9041 N   0  0  0  0  0  0  0  0  0  0  0  0
  -19.3491   -5.5603  -26.2226 N   0  0  0  0  0  0  0  0  0  0  0  0
  -21.4279   -5.2526  -30.9732 N   0  0  0  0  0  0  0  0  0  0  0  0
  -24.2490   -3.7923  -23.3394 N   0  0  0  0  0  0  0  0  0  0  0  0
  -22.0988   -3.3358  -22.6011 O   0  0  0  0  0  0  0  0  0  0  0  0
  -26.6869   -4.9910  -22.5632 O   0  0  0  0  0  0  0  0  0  0  0  0
  -16.1236   -5.6626  -26.4699 H   0  0  0  0  0  0  0  0  0  0  0  0
  -24.5077   -3.5734  -28.0589 H   0  0  0  0  0  0  0  0  0  0  0  0
  -20.4568   -4.8163  -24.0200 H   0  0  0  0  0  0  0  0  0  0  0  0
  -17.4575   -8.0459  -26.1536 H   0  0  0  0  0  0  0  0  0  0  0  0
  -17.7207   -5.4013  -34.4315 H   0  0  0  0  0  0  0  0  0  0  0  0
  -20.3795   -3.7352  -33.8361 H   0  0  0  0  0  0  0  0  0  0  0  0
  -19.3410   -4.5255  -32.6578 H   0  0  0  0  0  0  0  0  0  0  0  0
  -19.7253   -7.0965  -32.1723 H   0  0  0  0  0  0  0  0  0  0  0  0
  -21.0105   -7.9259  -33.0385 H   0  0  0  0  0  0  0  0  0  0  0  0
  -21.0321   -3.2310  -31.4842 H   0  0  0  0  0  0  0  0  0  0  0  0
  -22.3493   -3.9884  -32.3942 H   0  0  0  0  0  0  0  0  0  0  0  0
  -22.7420   -6.6332  -31.8815 H   0  0  0  0  0  0  0  0  0  0  0  0
  -21.6367   -7.3447  -30.6948 H   0  0  0  0  0  0  0  0  0  0  0  0
  -21.7033   -5.8173  -34.1596 H   0  0  0  0  0  0  0  0  0  0  0  0
  -23.8558   -3.0952  -31.0377 H   0  0  0  0  0  0  0  0  0  0  0  0
  -23.8693   -4.8316  -31.4330 H   0  0  0  0  0  0  0  0  0  0  0  0
  -25.0718   -4.1809  -30.3203 H   0  0  0  0  0  0  0  0  0  0  0  0
  -19.7460   -6.8391  -28.8417 H   0  0  0  0  0  0  0  0  0  0  0  0
  -19.3242   -5.4520  -29.8759 H   0  0  0  0  0  0  0  0  0  0  0  0
  -18.9251   -5.4134  -28.1593 H   0  0  0  0  0  0  0  0  0  0  0  0
  -18.1608   -3.1051  -27.5696 H   0  0  0  0  0  0  0  0  0  0  0  0
  -18.9153   -2.9007  -25.9695 H   0  0  0  0  0  0  0  0  0  0  0  0
  -17.1605   -3.0056  -26.0995 H   0  0  0  0  0  0  0  0  0  0  0  0
  -26.8241   -3.8095  -20.1523 H   0  0  0  0  0  0  0  0  0  0  0  0
  -27.0595   -2.1654  -20.7933 H   0  0  0  0  0  0  0  0  0  0  0  0
  -28.2536   -3.4106  -21.1293 H   0  0  0  0  0  0  0  0  0  0  0  0
  -24.6930   -2.3755  -21.8928 H   0  0  0  0  0  0  0  0  0  0  0  0
  -24.5438   -4.0432  -21.3036 H   0  0  0  0  0  0  0  0  0  0  0  0
  -26.8078   -3.0240  -23.1256 H   0  0  0  0  0  0  0  0  0  0  0  0
  -20.9931   -7.3859  -36.1299 H   0  0  0  0  0  0  0  0  0  0  0  0
  -24.8298   -4.0563  -24.1286 H   0  0  0  0  0  0  0  0  0  0  0  0
  -27.6457   -5.0758  -22.6783 H   0  0  0  0  0  0  0  0  0  0  0  0
  1  4  1  0  0  0  0
  1 14  2  0  0  0  0
  2  7  2  0  0  0  0
  2  9  1  0  0  0  0
  3 10  1  0  0  0  0
  3 12  2  0  0  0  0
  4 28  2  0  0  0  0
  5 13  2  0  0  0  0
  5 27  1  0  0  0  0
  6  8  1  0  0  0  0
  6  9  1  0  0  0  0
  6 10  2  0  0  0  0
  7 11  1  0  0  0  0
  7 21  1  0  0  0  0
  8 11  2  0  0  0  0
  8 22  1  0  0  0  0
  9 29  2  0  0  0  0
 10 32  1  0  0  0  0
 11 33  1  0  0  0  0
 12 15  1  0  0  0  0
 12 29  1  0  0  0  0
 13 20  1  0  0  0  0
 13 31  1  0  0  0  0
 14 23  1  0  0  0  0
 14 32  1  0  0  0  0
 15 34  1  0  0  0  0
 15 35  2  0  0  0  0
 16 18  1  0  0  0  0
 16 20  1  0  0  0  0
 17 19  1  0  0  0  0
 17 20  1  0  0  0  0
 18 33  1  0  0  0  0
 19 33  1  0  0  0  0
 24 26  1  0  0  0  0
 25 26  1  0  0  0  0
 25 34  1  0  0  0  0
 26 36  1  0  0  0  0
 27 30  2  0  0  0  0
 28 32  1  0  0  0  0
 30 31  1  0  0  0  0
  1 37  1  0  0  0  0
  2 38  1  0  0  0  0
  3 39  1  0  0  0  0
  4 40  1  0  0  0  0
  5 41  1  0  0  0  0
 16 42  1  0  0  0  0
 16 43  1  0  0  0  0
 17 44  1  0  0  0  0
 17 45  1  0  0  0  0
 18 46  1  0  0  0  0
 18 47  1  0  0  0  0
 19 48  1  0  0  0  0
 19 49  1  0  0  0  0
 20 50  1  0  0  0  0
 21 51  1  0  0  0  0
 21 52  1  0  0  0  0
 21 53  1  0  0  0  0
 22 54  1  0  0  0  0
 22 55  1  0  0  0  0
 22 56  1  0  0  0  0
 23 57  1  0  0  0  0
 23 58  1  0  0  0  0
 23 59  1  0  0  0  0
 24 60  1  0  0  0  0
 24 61  1  0  0  0  0
 24 62  1  0  0  0  0
 25 63  1  0  0  0  0
 25 64  1  0  0  0  0
 26 65  1  0  0  0  0
 31 66  1  0  0  0  0
 34 67  1  0  0  0  0
 36 68  1  0  0  0  0
M  END
> <SMILES>
C[C@H](O)CNC(=O)c1cc(c2c(c(c(cc2n1)C)N1CCC(CC1)c1cnn[nH]1)C)-n1nccc1C

> <FORMATTED_ID>
H3D-005847

> <MOLFORMULA>
C26H32N8O2

> <Exact Mass>
488.26

> <XLogP>
2.52

> <TPSA_NOPS>
124.8

> <s_m_source_file>
ligprep_h3d.sdf

> <i_m_source_file_index>
911

> <i_lp_mmshare_version>
55123

> <i_f3d_flags>
0

> <s_epik_input>
W0NIM11jMVtjSF1bY0hdbm4xLWMyW2NIXWMoQyg9TylbTkhdW0NIMl1bQ0BIXShbQ0gzXSlbT0hdKW5jKGMyMylbY0hdYyhbQ0gzXSljKGMzW0NIM10pTjRbQ0gyXVtDSDJdW0NIXShbQ0gyXVtDSDJdNCljNVtjSF1ubltuSF01

> <s_epik_cmdline>
J2VwaWtfcHl0aG9uJywgJy1waHQnLCAnMC41JywgJy1waCcsICc3LjUnLCAnLXRuJywgJzgnLCAnLW1hJywgJzUwMCcsICctaW1hZScsICc8aW5maWxlLm1hZT4nLCAnLW9tYWUnLCAnPG91dGZpbGUubWFlPic=

> <r_lp_tautomer_probability>
0.173826

> <r_epik_Ionization_Penalty>
0.00048172

> <r_epik_Ionization_Penalty_Charging>
0

> <r_epik_Ionization_Penalty_Neutral>
0.00048172

> <r_epik_State_Penalty>
0.41068

> <r_epik_Charging_Adjusted_Penalty>
0.41068

> <i_epik_Tot_Q>
0

> <i_epik_Tot_abs_Q>
0

> <s_lp_Force_Field>
S-OPLS

> <r_lp_Energy>
58.3815

> <b_lp_Chiralities_Consistent>
1

> <s_lp_Variant>
ligprep_h3d.sdf:911-1

> <ROCS_ShapeQuery>
_7L13

> <ROCS_TanimotoCombo>
0.743 

> <ROCS_ShapeTanimoto>
0.614 

> <ROCS_ColorTanimoto>
0.129 

> <ROCS_RefTversky>
0.764 

> <ROCS_RefColorTversky>
0.288 

> <ROCS_RefTverskyCombo>
1.051 

> <ROCS_FitTversky>
0.759 

> <ROCS_FitColorTversky>
0.189 

> <ROCS_FitTverskyCombo>
0.948 

> <ROCS_ColorScore>
-2.665

> <ROCS_Overlap>
1268.331

> <ROCS_Rank>
668                 

$$$$
ligprep_h3d.sdf:4506_1235
  -OEChem-08212117123D

 62 66  0     0  0  0  0  0  0999 V2000
  -19.0420   -4.7738  -26.6771 C   0  0  0  0  0  0  0  0  0  0  0  0
  -24.8241   -4.9370  -25.1006 C   0  0  0  0  0  0  0  0  0  0  0  0
  -23.3130   -4.0815  -23.4209 C   0  0  0  0  0  0  0  0  0  0  0  0
  -25.6248   -4.5061  -22.8623 C   0  0  0  0  0  0  0  0  0  0  0  0
  -18.6743   -4.6543  -28.0098 C   0  0  0  0  0  0  0  0  0  0  0  0
  -23.5498   -4.5103  -24.7269 C   0  0  0  0  0  0  0  0  0  0  0  0
  -21.3220   -4.4247  -27.4839 C   0  0  0  0  0  0  0  0  0  0  0  0
  -20.4072   -4.6488  -26.4601 C   0  0  0  0  0  0  0  0  0  0  0  0
  -25.8616   -4.9349  -24.1683 C   0  0  0  0  0  0  0  0  0  0  0  0
  -24.3505   -4.0794  -22.4885 C   0  0  0  0  0  0  0  0  0  0  0  0
  -20.8500   -4.3197  -28.7926 C   0  0  0  0  0  0  0  0  0  0  0  0
  -22.4765   -4.5125  -25.6912 C   0  0  0  0  0  0  0  0  0  0  0  0
  -21.0001   -5.2270  -33.4061 C   0  0  0  0  0  0  0  0  0  0  0  0
  -21.2839   -2.3223  -31.5089 C   0  0  0  0  0  0  0  0  0  0  0  0
  -18.6243   -5.4429  -34.1428 C   0  0  0  0  0  0  0  0  0  0  0  0
  -20.3257   -4.2916  -35.6204 C   0  0  0  0  0  0  0  0  0  0  0  0
  -22.0745   -2.7267  -30.2611 C   0  0  0  0  0  0  0  0  0  0  0  0
  -21.8562   -2.9156  -32.7966 C   0  0  0  0  0  0  0  0  0  0  0  0
  -22.4129   -5.2370  -30.4826 C   0  0  0  0  0  0  0  0  0  0  0  0
  -22.9345   -4.9630  -31.8951 C   0  0  0  0  0  0  0  0  0  0  0  0
  -18.7287   -6.6879  -35.0153 C   0  0  0  0  0  0  0  0  0  0  0  0
  -20.4121   -5.5488  -36.4774 C   0  0  0  0  0  0  0  0  0  0  0  0
  -19.8877   -4.5820  -34.1841 C   0  0  0  0  0  0  0  0  0  0  0  0
  -19.0842   -7.4661  -37.3562 C   0  0  0  0  0  0  0  0  0  0  0  0
  -19.5226   -4.4362  -29.0450 N   0  0  0  0  0  0  0  0  0  0  0  0
  -22.6022   -4.3427  -26.9885 N   0  0  0  0  0  0  0  0  0  0  0  0
  -21.1728   -4.7007  -25.3240 N   0  0  0  0  0  0  0  0  0  0  0  0
  -21.7399   -4.0938  -29.8493 N   0  0  0  0  0  0  0  0  0  0  0  0
  -21.9108   -4.3803  -32.7633 N   0  0  0  0  0  0  0  0  0  0  0  0
  -19.0977   -6.2873  -36.4222 N   0  3  0  0  0  0  0  0  0  0  0  0
  -21.0487   -6.4541  -33.3762 O   0  0  0  0  0  0  0  0  0  0  0  0
  -27.0852   -5.3447  -24.5274 F   0  0  0  0  0  0  0  0  0  0  0  0
  -24.1227   -3.6685  -21.2343 F   0  0  0  0  0  0  0  0  0  0  0  0
  -18.3295   -4.9476  -25.8824 H   0  0  0  0  0  0  0  0  0  0  0  0
  -25.0251   -5.2741  -26.1147 H   0  0  0  0  0  0  0  0  0  0  0  0
  -22.3249   -3.7466  -23.1139 H   0  0  0  0  0  0  0  0  0  0  0  0
  -26.4326   -4.5047  -22.1368 H   0  0  0  0  0  0  0  0  0  0  0  0
  -17.6289   -4.7359  -28.2941 H   0  0  0  0  0  0  0  0  0  0  0  0
  -21.3172   -1.2294  -31.5870 H   0  0  0  0  0  0  0  0  0  0  0  0
  -20.2271   -2.5901  -31.3986 H   0  0  0  0  0  0  0  0  0  0  0  0
  -18.4036   -5.7465  -33.1130 H   0  0  0  0  0  0  0  0  0  0  0  0
  -17.7744   -4.8383  -34.4828 H   0  0  0  0  0  0  0  0  0  0  0  0
  -19.6079   -3.5974  -36.0746 H   0  0  0  0  0  0  0  0  0  0  0  0
  -21.2990   -3.7880  -35.6259 H   0  0  0  0  0  0  0  0  0  0  0  0
  -21.8559   -2.0274  -29.4476 H   0  0  0  0  0  0  0  0  0  0  0  0
  -23.1483   -2.6453  -30.4583 H   0  0  0  0  0  0  0  0  0  0  0  0
  -22.8577   -2.5246  -33.0193 H   0  0  0  0  0  0  0  0  0  0  0  0
  -21.2145   -2.6049  -33.6320 H   0  0  0  0  0  0  0  0  0  0  0  0
  -23.2415   -5.6023  -29.8378 H   0  0  0  0  0  0  0  0  0  0  0  0
  -21.7068   -6.0940  -30.5190 H   0  0  0  0  0  0  0  0  0  0  0  0
  -23.3038   -5.8871  -32.3171 H   0  0  0  0  0  0  0  0  0  0  0  0
  -23.7530   -4.2539  -31.8445 H   0  0  0  0  0  0  0  0  0  0  0  0
  -17.7636   -7.2034  -35.0626 H   0  0  0  0  0  0  0  0  0  0  0  0
  -19.4939   -7.3839  -34.6541 H   0  0  0  0  0  0  0  0  0  0  0  0
  -21.1960   -6.2342  -36.1385 H   0  0  0  0  0  0  0  0  0  0  0  0
  -20.5946   -5.2833  -37.5241 H   0  0  0  0  0  0  0  0  0  0  0  0
  -19.6924   -3.6369  -33.6747 H   0  0  0  0  0  0  0  0  0  0  0  0
  -19.8505   -8.1671  -37.0202 H   0  0  0  0  0  0  0  0  0  0  0  0
  -19.3014   -7.0989  -38.3610 H   0  0  0  0  0  0  0  0  0  0  0  0
  -18.0915   -7.9180  -37.3095 H   0  0  0  0  0  0  0  0  0  0  0  0
  -20.8304   -4.8516  -24.3840 H   0  0  0  0  0  0  0  0  0  0  0  0
  -18.3692   -5.6425  -36.7585 H   0  0  0  0  0  0  0  0  0  0  0  0
  1  5  2  0  0  0  0
  1  8  1  0  0  0  0
  2  6  2  0  0  0  0
  2  9  1  0  0  0  0
  3  6  1  0  0  0  0
  3 10  2  0  0  0  0
  4  9  2  0  0  0  0
  4 10  1  0  0  0  0
  5 25  1  0  0  0  0
  6 12  1  0  0  0  0
  7  8  2  0  0  0  0
  7 11  1  0  0  0  0
  7 26  1  0  0  0  0
  8 27  1  0  0  0  0
  9 32  1  0  0  0  0
 10 33  1  0  0  0  0
 11 25  2  0  0  0  0
 11 28  1  0  0  0  0
 12 26  2  0  0  0  0
 12 27  1  0  0  0  0
 13 23  1  0  0  0  0
 13 29  1  0  0  0  0
 13 31  2  0  0  0  0
 14 17  1  0  0  0  0
 14 18  1  0  0  0  0
 15 21  1  0  0  0  0
 15 23  1  0  0  0  0
 16 22  1  0  0  0  0
 16 23  1  0  0  0  0
 17 28  1  0  0  0  0
 18 29  1  0  0  0  0
 19 20  1  0  0  0  0
 19 28  1  0  0  0  0
 20 29  1  0  0  0  0
 21 30  1  0  0  0  0
 22 30  1  0  0  0  0
 24 30  1  0  0  0  0
  1 34  1  0  0  0  0
  2 35  1  0  0  0  0
  3 36  1  0  0  0  0
  4 37  1  0  0  0  0
  5 38  1  0  0  0  0
 14 39  1  0  0  0  0
 14 40  1  0  0  0  0
 15 41  1  0  0  0  0
 15 42  1  0  0  0  0
 16 43  1  0  0  0  0
 16 44  1  0  0  0  0
 17 45  1  0  0  0  0
 17 46  1  0  0  0  0
 18 47  1  0  0  0  0
 18 48  1  0  0  0  0
 19 49  1  0  0  0  0
 19 50  1  0  0  0  0
 20 51  1  0  0  0  0
 20 52  1  0  0  0  0
 21 53  1  0  0  0  0
 21 54  1  0  0  0  0
 22 55  1  0  0  0  0
 22 56  1  0  0  0  0
 23 57  1  0  0  0  0
 24 58  1  0  0  0  0
 24 59  1  0  0  0  0
 24 60  1  0  0  0  0
 27 61  1  0  0  0  0
 30 62  1  0  0  0  0
M  CHG  1  30   1
M  END
> <SMILES>
CN1CCC(CC1)C(=O)N1CCCN(CC1)c1nccc2[nH]c(nc12)-c1cc(cc(c1)F)F

> <FORMATTED_ID>
H3D-004345

> <MOLFORMULA>
C24H28F2N6O

> <Exact Mass>
454.23

> <XLogP>
3.91

> <TPSA_NOPS>
68.4

> <s_m_source_file>
ligprep_h3d.sdf

> <i_m_source_file_index>
4506

> <i_lp_mmshare_version>
55123

> <i_f3d_flags>
0

> <s_epik_input>
W0NIM11OMVtDSDJdW0NIMl1bQ0hdKFtDSDJdW0NIMl0xKUMoPU8pTjJbQ0gyXVtDSDJdW0NIMl1OKFtDSDJdW0NIMl0yKWMobltjSF1bY0hdMyljKGMzNCluYyhbbkhdNCktYzVbY0hdYyhGKVtjSF1jKEYpW2NIXTU=

> <s_epik_cmdline>
J2VwaWtfcHl0aG9uJywgJy1waHQnLCAnMC41JywgJy1waCcsICc3LjUnLCAnLXRuJywgJzgnLCAnLW1hJywgJzUwMCcsICctaW1hZScsICc8aW5maWxlLm1hZT4nLCAnLW9tYWUnLCAnPG91dGZpbGUubWFlPic=

> <r_lp_tautomer_probability>
0.742559

> <r_epik_Ionization_Penalty>
0.456779

> <r_epik_Ionization_Penalty_Charging>
0.456332

> <r_epik_Ionization_Penalty_Neutral>
0.000447461

> <r_epik_State_Penalty>
0.4589

> <r_epik_Charging_Adjusted_Penalty>
0.915232

> <i_epik_Tot_Q>
1

> <i_epik_Tot_abs_Q>
1

> <s_lp_Force_Field>
S-OPLS

> <r_lp_Energy>
63.9002

> <b_lp_Chiralities_Consistent>
1

> <s_lp_Variant>
ligprep_h3d.sdf:4506-2

> <ROCS_ShapeQuery>
_7L13

> <ROCS_TanimotoCombo>
0.867 

> <ROCS_ShapeTanimoto>
0.657 

> <ROCS_ColorTanimoto>
0.210 

> <ROCS_RefTversky>
0.764 

> <ROCS_RefColorTversky>
0.382 

> <ROCS_RefTverskyCombo>
1.145 

> <ROCS_FitTversky>
0.826 

> <ROCS_FitColorTversky>
0.318 

> <ROCS_FitTverskyCombo>
1.144 

> <ROCS_ColorScore>
-3.474

> <ROCS_Overlap>
1262.617

> <ROCS_Rank>
669                 

$$$$
ligprep_h3d.sdf:4626_1800
  -OEChem-08212117123D

 61 65  0     1  0  0  0  0  0999 V2000
  -23.3595   -3.8006  -23.6934 C   0  0  0  0  0  0  0  0  0  0  0  0
  -24.3677   -3.8446  -22.7305 C   0  0  0  0  0  0  0  0  0  0  0  0
  -19.0895   -4.9593  -27.0244 C   0  0  0  0  0  0  0  0  0  0  0  0
  -24.6191   -5.3244  -25.0821 C   0  0  0  0  0  0  0  0  0  0  0  0
  -18.7291   -4.6593  -28.3254 C   0  0  0  0  0  0  0  0  0  0  0  0
  -23.4852   -4.5405  -24.8692 C   0  0  0  0  0  0  0  0  0  0  0  0
  -21.3253   -4.2281  -27.6705 C   0  0  0  0  0  0  0  0  0  0  0  0
  -20.4236   -4.7235  -26.7357 C   0  0  0  0  0  0  0  0  0  0  0  0
  -25.5017   -4.6285  -22.9434 C   0  0  0  0  0  0  0  0  0  0  0  0
  -25.6274   -5.3685  -24.1192 C   0  0  0  0  0  0  0  0  0  0  0  0
  -20.9106   -3.9424  -28.9672 C   0  0  0  0  0  0  0  0  0  0  0  0
  -22.4427   -4.4956  -25.8653 C   0  0  0  0  0  0  0  0  0  0  0  0
  -21.7252   -6.8324  -33.4819 C   0  0  0  0  0  0  0  0  0  0  0  0
  -19.8105   -5.2231  -33.8212 C   0  0  0  0  0  0  0  0  0  0  0  0
  -21.1888   -2.5894  -31.0412 C   0  0  0  0  0  0  0  0  0  0  0  0
  -20.9879   -3.3579  -32.3556 C   0  0  0  0  0  0  0  0  0  0  0  0
  -23.1663   -3.7491  -29.9838 C   0  0  0  0  0  0  0  0  0  0  0  0
  -23.2103   -4.4236  -32.5007 C   0  0  0  0  0  0  0  0  0  0  0  0
  -21.2194   -7.6683  -34.6490 C   0  0  0  0  0  0  0  0  0  0  0  0
  -19.3161   -6.0691  -34.9861 C   0  0  0  0  0  0  0  0  0  0  0  0
  -21.3205   -5.3630  -33.6171 C   0  0  0  0  0  0  0  0  0  0  0  0
  -23.8293   -3.6208  -31.3543 C   0  0  0  0  0  0  0  0  0  0  0  0
  -18.9194   -8.2578  -33.7939 C   0  0  0  0  0  0  0  0  0  0  0  0
  -22.5766   -4.0933  -27.1089 N   0  0  0  0  0  0  0  0  0  0  0  0
  -21.1621   -4.8855  -25.5921 N   0  0  0  0  0  0  0  0  0  0  0  0
  -19.6175   -4.1833  -29.2054 N   0  3  0  0  0  0  0  0  0  0  0  0
  -21.7286   -3.4445  -29.9823 N   0  0  0  0  0  0  0  0  0  0  0  0
  -21.7539   -4.6049  -32.4677 N   0  0  1  0  0  0  0  0  0  0  0  0
  -19.7287   -7.5107  -34.8194 N   0  3  0  0  0  0  0  0  0  0  0  0
  -26.4689   -4.6714  -22.0175 F   0  0  0  0  0  0  0  0  0  0  0  0
  -26.7161   -6.1215  -24.3233 F   0  0  0  0  0  0  0  0  0  0  0  0
  -25.1260   -4.0340  -31.2193 F   0  0  0  0  0  0  0  0  0  0  0  0
  -23.9178   -2.3130  -31.7114 F   0  0  0  0  0  0  0  0  0  0  0  0
  -22.4822   -3.1839  -23.5131 H   0  0  0  0  0  0  0  0  0  0  0  0
  -24.2704   -3.2678  -21.8157 H   0  0  0  0  0  0  0  0  0  0  0  0
  -18.3865   -5.3444  -26.2980 H   0  0  0  0  0  0  0  0  0  0  0  0
  -24.7321   -5.9075  -25.9929 H   0  0  0  0  0  0  0  0  0  0  0  0
  -17.7233   -4.7893  -28.7032 H   0  0  0  0  0  0  0  0  0  0  0  0
  -22.8164   -6.8965  -33.4445 H   0  0  0  0  0  0  0  0  0  0  0  0
  -21.3544   -7.2496  -32.5429 H   0  0  0  0  0  0  0  0  0  0  0  0
  -19.2714   -5.5006  -32.9111 H   0  0  0  0  0  0  0  0  0  0  0  0
  -19.5740   -4.1722  -34.0157 H   0  0  0  0  0  0  0  0  0  0  0  0
  -20.2374   -2.1448  -30.7245 H   0  0  0  0  0  0  0  0  0  0  0  0
  -21.8701   -1.7476  -31.2169 H   0  0  0  0  0  0  0  0  0  0  0  0
  -21.1791   -2.6931  -33.2127 H   0  0  0  0  0  0  0  0  0  0  0  0
  -19.9126   -3.5926  -32.3983 H   0  0  0  0  0  0  0  0  0  0  0  0
  -23.6798   -3.0864  -29.2624 H   0  0  0  0  0  0  0  0  0  0  0  0
  -23.3333   -4.7694  -29.5908 H   0  0  0  0  0  0  0  0  0  0  0  0
  -23.7058   -5.4157  -32.4572 H   0  0  0  0  0  0  0  0  0  0  0  0
  -23.5410   -4.0156  -33.4793 H   0  0  0  0  0  0  0  0  0  0  0  0
  -21.4277   -8.7417  -34.5125 H   0  0  0  0  0  0  0  0  0  0  0  0
  -21.6921   -7.3400  -35.5881 H   0  0  0  0  0  0  0  0  0  0  0  0
  -19.7553   -5.7115  -35.9310 H   0  0  0  0  0  0  0  0  0  0  0  0
  -18.2183   -6.0447  -35.0840 H   0  0  0  0  0  0  0  0  0  0  0  0
  -21.8285   -4.9454  -34.5090 H   0  0  0  0  0  0  0  0  0  0  0  0
  -19.1219   -7.8111  -32.8187 H   0  0  0  0  0  0  0  0  0  0  0  0
  -19.2314   -9.3036  -33.8191 H   0  0  0  0  0  0  0  0  0  0  0  0
  -17.8658   -8.1559  -34.0609 H   0  0  0  0  0  0  0  0  0  0  0  0
  -20.8158   -5.2322  -24.7070 H   0  0  0  0  0  0  0  0  0  0  0  0
  -19.2791   -3.9847  -30.1472 H   0  0  0  0  0  0  0  0  0  0  0  0
  -19.4995   -7.9786  -35.7447 H   0  0  0  0  0  0  0  0  0  0  0  0
  1  2  1  0  0  0  0
  1  6  2  0  0  0  0
  2  9  2  0  0  0  0
  3  5  2  0  0  0  0
  3  8  1  0  0  0  0
  4  6  1  0  0  0  0
  4 10  2  0  0  0  0
  5 26  1  0  0  0  0
  6 12  1  0  0  0  0
  7  8  2  0  0  0  0
  7 11  1  0  0  0  0
  7 24  1  0  0  0  0
  8 25  1  0  0  0  0
  9 10  1  0  0  0  0
  9 30  1  0  0  0  0
 10 31  1  0  0  0  0
 11 26  2  0  0  0  0
 11 27  1  0  0  0  0
 12 24  2  0  0  0  0
 12 25  1  0  0  0  0
 13 19  1  0  0  0  0
 13 21  1  0  0  0  0
 14 20  1  0  0  0  0
 14 21  1  0  0  0  0
 15 16  1  0  0  0  0
 15 27  1  0  0  0  0
 16 28  1  0  0  0  0
 17 22  1  0  0  0  0
 17 27  1  0  0  0  0
 18 22  1  0  0  0  0
 18 28  1  0  0  0  0
 19 29  1  0  0  0  0
 20 29  1  0  0  0  0
 21 28  1  0  0  0  0
 22 32  1  0  0  0  0
 22 33  1  0  0  0  0
 23 29  1  0  0  0  0
  1 34  1  0  0  0  0
  2 35  1  0  0  0  0
  3 36  1  0  0  0  0
  4 37  1  0  0  0  0
  5 38  1  0  0  0  0
 13 39  1  0  0  0  0
 13 40  1  0  0  0  0
 14 41  1  0  0  0  0
 14 42  1  0  0  0  0
 15 43  1  0  0  0  0
 15 44  1  0  0  0  0
 16 45  1  0  0  0  0
 16 46  1  0  0  0  0
 17 47  1  0  0  0  0
 17 48  1  0  0  0  0
 18 49  1  0  0  0  0
 18 50  1  0  0  0  0
 19 51  1  0  0  0  0
 19 52  1  0  0  0  0
 20 53  1  0  0  0  0
 20 54  1  0  0  0  0
 21 55  1  0  0  0  0
 23 56  1  0  0  0  0
 23 57  1  0  0  0  0
 23 58  1  0  0  0  0
 25 59  1  0  0  0  0
 26 60  1  0  0  0  0
 29 61  1  0  0  0  0
M  CHG  2  26   1  29   1
M  END
> <SMILES>
CN1CCC(CC1)N1CCN(CC(F)(F)C1)c1nccc2[nH]c(nc12)-c1ccc(c(c1)F)F

> <FORMATTED_ID>
H3D-005900

> <MOLFORMULA>
C23H26F4N6

> <Exact Mass>
462.22

> <XLogP>
4.09

> <TPSA_NOPS>
51.3

> <s_m_source_file>
ligprep_h3d.sdf

> <i_m_source_file_index>
4626

> <i_lp_mmshare_version>
55123

> <i_f3d_flags>
0

> <s_epik_input>
W0NIM11OMVtDSDJdW0NIMl1bQ0hdKFtDSDJdW0NIMl0xKU4oW0NIMl0yKVtDSDJdW0NIMl1OKFtDSDJdQzIoRilGKWMobltjSF1bY0hdMyljKGMzNCluYyhbbkhdNCktYzVbY0hdW2NIXWMoRiljKEYpW2NIXTU=

> <s_epik_cmdline>
J2VwaWtfcHl0aG9uJywgJy1waHQnLCAnMC41JywgJy1waCcsICc3LjUnLCAnLXRuJywgJzgnLCAnLW1hJywgJzUwMCcsICctaW1hZScsICc8aW5maWxlLm1hZT4nLCAnLW9tYWUnLCAnPG91dGZpbGUubWFlPic=

> <r_lp_tautomer_probability>
0.887829

> <r_epik_Ionization_Penalty>
0.33414

> <r_epik_Ionization_Penalty_Charging>
0.0023119

> <r_epik_Ionization_Penalty_Neutral>
0.331828

> <r_epik_State_Penalty>
0.326091

> <r_epik_Charging_Adjusted_Penalty>
0.328403

> <i_epik_Tot_Q>
2

> <i_epik_Tot_abs_Q>
2

> <s_lp_Force_Field>
S-OPLS

> <r_lp_Energy>
79.3284

> <b_lp_Chiralities_Consistent>
1

> <s_lp_Variant>
ligprep_h3d.sdf:4626-1

> <ROCS_ShapeQuery>
_7L13

> <ROCS_TanimotoCombo>
0.806 

> <ROCS_ShapeTanimoto>
0.653 

> <ROCS_ColorTanimoto>
0.154 

> <ROCS_RefTversky>
0.764 

> <ROCS_RefColorTversky>
0.306 

> <ROCS_RefTverskyCombo>
1.069 

> <ROCS_FitTversky>
0.818 

> <ROCS_FitColorTversky>
0.236 

> <ROCS_FitTverskyCombo>
1.054 

> <ROCS_ColorScore>
-2.800

> <ROCS_Overlap>
1263.190

> <ROCS_Rank>
670                 

$$$$
ligprep_h3d.sdf:851_96
  -OEChem-08212117123D

 60 65  0     1  0  0  0  0  0999 V2000
  -20.9720   -5.1384  -29.5079 C   0  0  0  0  0  0  0  0  0  0  0  0
  -21.7465   -4.3798  -30.3878 C   0  0  0  0  0  0  0  0  0  0  0  0
  -21.0858   -4.8965  -28.1171 C   0  0  0  0  0  0  0  0  0  0  0  0
  -21.9843   -3.9437  -27.5822 C   0  0  0  0  0  0  0  0  0  0  0  0
  -22.5940   -3.4294  -29.8627 C   0  0  0  0  0  0  0  0  0  0  0  0
  -22.7423   -3.1767  -28.4986 C   0  0  0  0  0  0  0  0  0  0  0  0
  -21.9423   -4.2728  -31.7773 C   0  0  0  0  0  0  0  0  0  0  0  0
  -18.9199   -3.8350  -26.2013 C   0  0  0  0  0  0  0  0  0  0  0  0
  -19.2648   -6.1003  -25.0199 C   0  0  0  0  0  0  0  0  0  0  0  0
  -17.0041   -5.3420  -25.7214 C   0  0  0  0  0  0  0  0  0  0  0  0
  -19.9683   -3.7649  -34.2528 C   0  0  0  0  0  0  0  0  0  0  0  0
  -20.2206   -5.7184  -27.1994 C   0  0  0  0  0  0  0  0  0  0  0  0
  -19.4504   -6.1400  -33.7480 C   0  0  0  0  0  0  0  0  0  0  0  0
  -21.7578   -6.3661  -33.1366 C   0  0  0  0  0  0  0  0  0  0  0  0
  -23.0479   -2.7962  -25.6496 C   0  0  0  0  0  0  0  0  0  0  0  0
  -19.9107   -4.8008  -33.1733 C   0  0  2  0  0  0  0  0  0  0  0  0
  -21.2153   -4.4791  -25.2357 C   0  0  2  0  0  0  0  0  0  0  0  0
  -20.7463   -6.8076  -34.1920 C   0  0  2  0  0  0  0  0  0  0  0  0
  -23.4203   -3.1070  -24.1971 C   0  0  1  0  0  0  0  0  0  0  0  0
  -21.0484   -3.5445  -24.0023 C   0  0  2  0  0  0  0  0  0  0  0  0
  -19.8872   -4.9851  -25.8762 C   0  0  0  0  0  0  0  0  0  0  0  0
  -24.4110   -4.2637  -24.0784 C   0  0  0  0  0  0  0  0  0  0  0  0
  -20.0961   -4.0297  -22.9159 C   0  0  0  0  0  0  0  0  0  0  0  0
  -22.8373   -3.3314  -32.0920 N   0  0  0  0  0  0  0  0  0  0  0  0
  -17.5780   -4.1813  -26.2199 N   0  0  0  0  0  0  0  0  0  0  0  0
  -17.8880   -6.2265  -25.1199 N   0  0  0  0  0  0  0  0  0  0  0  0
  -22.0950   -3.7683  -26.2007 N   0  0  3  0  0  0  0  0  0  0  0  0
  -21.2601   -5.0698  -32.6767 N   0  0  0  0  0  0  0  0  0  0  0  0
  -20.8569   -2.8808  -34.1047 O   0  5  0  0  0  0  0  0  0  0  0  0
  -19.2948   -2.6987  -26.4900 O   0  0  0  0  0  0  0  0  0  0  0  0
  -19.9397   -6.8897  -24.3576 O   0  0  0  0  0  0  0  0  0  0  0  0
  -15.7913   -5.5534  -25.7726 O   0  0  0  0  0  0  0  0  0  0  0  0
  -19.1169   -3.9120  -35.1741 O   0  0  0  0  0  0  0  0  0  0  0  0
  -23.2470   -2.7970  -30.8759 O   0  0  0  0  0  0  0  0  0  0  0  0
  -22.3100   -3.3715  -23.3451 O   0  0  0  0  0  0  0  0  0  0  0  0
  -20.5957   -8.2136  -34.2196 O   0  0  0  0  0  0  0  0  0  0  0  0
  -23.5197   -2.1500  -28.1348 F   0  0  0  0  0  0  0  0  0  0  0  0
  -20.2878   -5.8941  -29.8834 H   0  0  0  0  0  0  0  0  0  0  0  0
  -20.7530   -6.6587  -27.0005 H   0  0  0  0  0  0  0  0  0  0  0  0
  -19.2902   -5.9880  -27.7178 H   0  0  0  0  0  0  0  0  0  0  0  0
  -18.7523   -6.0367  -34.5856 H   0  0  0  0  0  0  0  0  0  0  0  0
  -18.9535   -6.7407  -32.9760 H   0  0  0  0  0  0  0  0  0  0  0  0
  -22.7625   -6.2799  -33.5666 H   0  0  0  0  0  0  0  0  0  0  0  0
  -21.8041   -7.0811  -32.3050 H   0  0  0  0  0  0  0  0  0  0  0  0
  -23.9593   -2.8346  -26.2815 H   0  0  0  0  0  0  0  0  0  0  0  0
  -22.7314   -1.7427  -25.6909 H   0  0  0  0  0  0  0  0  0  0  0  0
  -19.2204   -4.4701  -32.3724 H   0  0  0  0  0  0  0  0  0  0  0  0
  -21.7977   -5.3543  -24.9083 H   0  0  0  0  0  0  0  0  0  0  0  0
  -21.0403   -6.4574  -35.1888 H   0  0  0  0  0  0  0  0  0  0  0  0
  -23.9630   -2.1966  -23.7637 H   0  0  0  0  0  0  0  0  0  0  0  0
  -20.6983   -2.5433  -24.3141 H   0  0  0  0  0  0  0  0  0  0  0  0
  -23.9667   -5.1775  -24.4734 H   0  0  0  0  0  0  0  0  0  0  0  0
  -25.3165   -4.0386  -24.6422 H   0  0  0  0  0  0  0  0  0  0  0  0
  -24.6756   -4.4224  -23.0329 H   0  0  0  0  0  0  0  0  0  0  0  0
  -20.3973   -5.0187  -22.5707 H   0  0  0  0  0  0  0  0  0  0  0  0
  -20.1117   -3.3404  -22.0717 H   0  0  0  0  0  0  0  0  0  0  0  0
  -19.0807   -4.0859  -23.3083 H   0  0  0  0  0  0  0  0  0  0  0  0
  -16.9447   -3.5113  -26.6455 H   0  0  0  0  0  0  0  0  0  0  0  0
  -17.4739   -7.0299  -24.6562 H   0  0  0  0  0  0  0  0  0  0  0  0
  -19.8829   -8.4135  -34.8508 H   0  0  0  0  0  0  0  0  0  0  0  0
  1  2  2  0  0  0  0
  1  3  1  0  0  0  0
  2  5  1  0  0  0  0
  2  7  1  0  0  0  0
  3  4  2  0  0  0  0
  3 12  1  0  0  0  0
  4  6  1  0  0  0  0
  4 27  1  0  0  0  0
  5  6  2  0  0  0  0
  5 34  1  0  0  0  0
  6 37  1  0  0  0  0
  7 24  2  0  0  0  0
  7 28  1  0  0  0  0
  8 21  1  0  0  0  0
  8 25  1  0  0  0  0
  8 30  2  0  0  0  0
  9 21  1  0  0  0  0
  9 26  1  0  0  0  0
  9 31  2  0  0  0  0
 10 25  1  0  0  0  0
 10 26  1  0  0  0  0
 10 32  2  0  0  0  0
 11 16  1  0  0  0  0
 11 29  1  0  0  0  0
 11 33  2  0  0  0  0
 12 21  1  0  0  0  0
 13 16  1  0  0  0  0
 13 18  1  0  0  0  0
 14 18  1  0  0  0  0
 14 28  1  0  0  0  0
 15 19  1  0  0  0  0
 15 27  1  0  0  0  0
 16 28  1  0  0  0  0
 17 20  1  0  0  0  0
 17 21  1  0  0  0  0
 17 27  1  0  0  0  0
 18 36  1  0  0  0  0
 19 22  1  0  0  0  0
 19 35  1  0  0  0  0
 20 23  1  0  0  0  0
 20 35  1  0  0  0  0
 24 34  1  0  0  0  0
  1 38  1  0  0  0  0
 12 39  1  0  0  0  0
 12 40  1  0  0  0  0
 13 41  1  0  0  0  0
 13 42  1  0  0  0  0
 14 43  1  0  0  0  0
 14 44  1  0  0  0  0
 15 45  1  0  0  0  0
 15 46  1  0  0  0  0
 16 47  1  0  0  0  0
 17 48  1  0  0  0  0
 18 49  1  0  0  0  0
 19 50  1  0  0  0  0
 20 51  1  0  0  0  0
 22 52  1  0  0  0  0
 22 53  1  0  0  0  0
 22 54  1  0  0  0  0
 23 55  1  0  0  0  0
 23 56  1  0  0  0  0
 23 57  1  0  0  0  0
 25 58  1  0  0  0  0
 26 59  1  0  0  0  0
 36 60  1  0  0  0  0
M  CHG  1  29  -1
M  END
> <SMILES>
C[C@@H]1CN2[C@H]([C@H](C)O1)C1(Cc3cc4c(noc4c(c32)F)N2C[C@H](O)C[C@H]2C(=O)O)C(=O)NC(=O)NC1=O

> <FORMATTED_ID>
H3D-005663

> <MOLFORMULA>
C23H24FN5O8

> <Exact Mass>
517.16

> <XLogP>
-1.05

> <TPSA_NOPS>
174.8

> <s_m_source_file>
ligprep_h3d.sdf

> <i_m_source_file_index>
851

> <i_lp_mmshare_version>
55123

> <i_f3d_flags>
0

> <s_epik_input>
Tz1DMVtOSF1DKD1PKVtOSF1DKD1PKUMxMltDQEBIXTNOKFtDSDJdW0NAQEhdKFtDSDNdKU9bQ0BIXTNbQ0gzXSljNGMoW0NIMl0yKVtjSF1jNWMoYzRGKW9uYzVONltDSDJdW0NASF0oW09IXSlbQ0gyXVtDQEhdNkMoPU8pW09IXQ==

> <s_epik_cmdline>
J2VwaWtfcHl0aG9uJywgJy1waHQnLCAnMC41JywgJy1waCcsICc3LjUnLCAnLXRuJywgJzgnLCAnLW1hJywgJzUwMCcsICctaW1hZScsICc8aW5maWxlLm1hZT4nLCAnLW9tYWUnLCAnPG91dGZpbGUubWFlPic=

> <r_lp_tautomer_probability>
1

> <r_epik_Ionization_Penalty>
0.369196

> <r_epik_Ionization_Penalty_Charging>
6.67865e-05

> <r_epik_Ionization_Penalty_Neutral>
0.36913

> <r_epik_State_Penalty>
0.366447

> <r_epik_Charging_Adjusted_Penalty>
0.366514

> <i_epik_Tot_Q>
-1

> <i_epik_Tot_abs_Q>
1

> <s_lp_Force_Field>
S-OPLS

> <r_lp_Energy>
48.3387

> <b_lp_Chiralities_Consistent>
1

> <s_lp_Variant>
ligprep_h3d.sdf:851-1

> <ROCS_ShapeQuery>
_7L13

> <ROCS_TanimotoCombo>
0.707 

> <ROCS_ShapeTanimoto>
0.593 

> <ROCS_ColorTanimoto>
0.114 

> <ROCS_RefTversky>
0.763 

> <ROCS_RefColorTversky>
0.293 

> <ROCS_RefTverskyCombo>
1.057 

> <ROCS_FitTversky>
0.727 

> <ROCS_FitColorTversky>
0.157 

> <ROCS_FitTverskyCombo>
0.884 

> <ROCS_ColorScore>
-2.770

> <ROCS_Overlap>
1271.345

> <ROCS_Rank>
671                 

$$$$
ligprep_h3d.sdf:5084_1808
  -OEChem-08212117123D

 61 65  0     0  0  0  0  0  0999 V2000
  -19.2721   -5.5322  -34.8098 C   0  0  0  0  0  0  0  0  0  0  0  0
  -20.2648   -6.4604  -34.4959 C   0  0  0  0  0  0  0  0  0  0  0  0
  -19.1951   -4.3291  -34.1080 C   0  0  0  0  0  0  0  0  0  0  0  0
  -21.1806   -6.1856  -33.4804 C   0  0  0  0  0  0  0  0  0  0  0  0
  -20.1110   -4.0543  -33.0925 C   0  0  0  0  0  0  0  0  0  0  0  0
  -18.7316   -6.2959  -25.3993 C   0  0  0  0  0  0  0  0  0  0  0  0
  -23.6436   -3.9188  -27.7618 C   0  0  0  0  0  0  0  0  0  0  0  0
  -20.9501   -4.3721  -28.4453 C   0  0  0  0  0  0  0  0  0  0  0  0
  -18.3605   -3.9918  -25.9803 C   0  0  0  0  0  0  0  0  0  0  0  0
  -17.3643   -6.4117  -25.2075 C   0  0  0  0  0  0  0  0  0  0  0  0
  -22.7145   -4.3001  -26.8012 C   0  0  0  0  0  0  0  0  0  0  0  0
  -21.1037   -4.9825  -32.7786 C   0  0  0  0  0  0  0  0  0  0  0  0
  -19.2312   -5.0595  -25.7930 C   0  0  0  0  0  0  0  0  0  0  0  0
  -21.3668   -4.5115  -27.1272 C   0  0  0  0  0  0  0  0  0  0  0  0
  -23.2175   -3.7668  -29.0797 C   0  0  0  0  0  0  0  0  0  0  0  0
  -21.8798   -3.9963  -29.4199 C   0  0  0  0  0  0  0  0  0  0  0  0
  -17.0098   -4.2106  -25.7623 C   0  0  0  0  0  0  0  0  0  0  0  0
  -23.0704   -3.1487  -24.6073 C   0  0  0  0  0  0  0  0  0  0  0  0
  -24.1431   -5.4009  -25.0104 C   0  0  0  0  0  0  0  0  0  0  0  0
  -21.5885   -5.2224  -24.9519 C   0  0  0  0  0  0  0  0  0  0  0  0
  -23.3706   -3.2800  -23.1175 C   0  0  0  0  0  0  0  0  0  0  0  0
  -24.3914   -5.5376  -23.5139 C   0  0  0  0  0  0  0  0  0  0  0  0
  -22.9285   -4.5092  -25.3218 C   0  0  0  0  0  0  0  0  0  0  0  0
  -24.9685   -4.2408  -21.4650 C   0  0  0  0  0  0  0  0  0  0  0  0
  -24.2777   -1.9959  -30.2611 C   0  0  0  0  0  0  0  0  0  0  0  0
  -22.0888   -4.6861  -31.6862 C   0  0  0  0  0  0  0  0  0  0  0  0
  -16.4874   -5.3972  -25.3795 N   0  0  0  0  0  0  0  0  0  0  0  0
  -20.6036   -4.8906  -25.9998 N   0  0  0  0  0  0  0  0  0  0  0  0
  -24.5752   -4.1645  -22.9149 N   0  3  0  0  0  0  0  0  0  0  0  0
  -24.1172   -3.3944  -30.0333 O   0  0  0  0  0  0  0  0  0  0  0  0
  -21.4659   -3.8530  -30.7115 O   0  0  0  0  0  0  0  0  0  0  0  0
  -16.1585   -3.1884  -25.9394 F   0  0  0  0  0  0  0  0  0  0  0  0
  -18.5582   -5.7469  -35.5997 H   0  0  0  0  0  0  0  0  0  0  0  0
  -20.3242   -7.3977  -35.0415 H   0  0  0  0  0  0  0  0  0  0  0  0
  -18.4217   -3.6067  -34.3514 H   0  0  0  0  0  0  0  0  0  0  0  0
  -21.9509   -6.9146  -33.2428 H   0  0  0  0  0  0  0  0  0  0  0  0
  -20.0434   -3.1143  -32.5512 H   0  0  0  0  0  0  0  0  0  0  0  0
  -19.3834   -7.1492  -25.2444 H   0  0  0  0  0  0  0  0  0  0  0  0
  -24.6796   -3.7370  -27.4945 H   0  0  0  0  0  0  0  0  0  0  0  0
  -19.9139   -4.5460  -28.7210 H   0  0  0  0  0  0  0  0  0  0  0  0
  -18.7178   -3.0145  -26.2871 H   0  0  0  0  0  0  0  0  0  0  0  0
  -16.9244   -7.3547  -24.9001 H   0  0  0  0  0  0  0  0  0  0  0  0
  -23.8792   -2.5690  -25.0737 H   0  0  0  0  0  0  0  0  0  0  0  0
  -22.1604   -2.5479  -24.7347 H   0  0  0  0  0  0  0  0  0  0  0  0
  -24.0131   -6.3984  -25.4493 H   0  0  0  0  0  0  0  0  0  0  0  0
  -25.0479   -4.9872  -25.4753 H   0  0  0  0  0  0  0  0  0  0  0  0
  -21.2148   -4.9274  -23.9652 H   0  0  0  0  0  0  0  0  0  0  0  0
  -21.7237   -6.3131  -24.9362 H   0  0  0  0  0  0  0  0  0  0  0  0
  -22.5372   -3.7202  -22.5607 H   0  0  0  0  0  0  0  0  0  0  0  0
  -23.6088   -2.3002  -22.6899 H   0  0  0  0  0  0  0  0  0  0  0  0
  -25.3120   -6.1012  -23.3295 H   0  0  0  0  0  0  0  0  0  0  0  0
  -23.5578   -6.0222  -22.9944 H   0  0  0  0  0  0  0  0  0  0  0  0
  -24.1464   -4.7086  -20.9201 H   0  0  0  0  0  0  0  0  0  0  0  0
  -25.1442   -3.2228  -21.1123 H   0  0  0  0  0  0  0  0  0  0  0  0
  -25.8770   -4.8422  -21.3965 H   0  0  0  0  0  0  0  0  0  0  0  0
  -25.0229   -1.8368  -31.0444 H   0  0  0  0  0  0  0  0  0  0  0  0
  -23.3203   -1.5624  -30.5607 H   0  0  0  0  0  0  0  0  0  0  0  0
  -24.6169   -1.5219  -29.3370 H   0  0  0  0  0  0  0  0  0  0  0  0
  -22.9714   -4.1730  -32.0831 H   0  0  0  0  0  0  0  0  0  0  0  0
  -22.4250   -5.6113  -31.2059 H   0  0  0  0  0  0  0  0  0  0  0  0
  -25.3640   -3.7213  -23.4056 H   0  0  0  0  0  0  0  0  0  0  0  0
  1  2  2  0  0  0  0
  1  3  1  0  0  0  0
  2  4  1  0  0  0  0
  3  5  2  0  0  0  0
  4 12  2  0  0  0  0
  5 12  1  0  0  0  0
  6 10  1  0  0  0  0
  6 13  2  0  0  0  0
  7 11  1  0  0  0  0
  7 15  2  0  0  0  0
  8 14  1  0  0  0  0
  8 16  2  0  0  0  0
  9 13  1  0  0  0  0
  9 17  2  0  0  0  0
 10 27  2  0  0  0  0
 11 14  2  0  0  0  0
 11 23  1  0  0  0  0
 12 26  1  0  0  0  0
 13 28  1  0  0  0  0
 14 28  1  0  0  0  0
 15 16  1  0  0  0  0
 15 30  1  0  0  0  0
 16 31  1  0  0  0  0
 17 27  1  0  0  0  0
 17 32  1  0  0  0  0
 18 21  1  0  0  0  0
 18 23  1  0  0  0  0
 19 22  1  0  0  0  0
 19 23  1  0  0  0  0
 20 23  1  0  0  0  0
 20 28  1  0  0  0  0
 21 29  1  0  0  0  0
 22 29  1  0  0  0  0
 24 29  1  0  0  0  0
 25 30  1  0  0  0  0
 26 31  1  0  0  0  0
  1 33  1  0  0  0  0
  2 34  1  0  0  0  0
  3 35  1  0  0  0  0
  4 36  1  0  0  0  0
  5 37  1  0  0  0  0
  6 38  1  0  0  0  0
  7 39  1  0  0  0  0
  8 40  1  0  0  0  0
  9 41  1  0  0  0  0
 10 42  1  0  0  0  0
 18 43  1  0  0  0  0
 18 44  1  0  0  0  0
 19 45  1  0  0  0  0
 19 46  1  0  0  0  0
 20 47  1  0  0  0  0
 20 48  1  0  0  0  0
 21 49  1  0  0  0  0
 21 50  1  0  0  0  0
 22 51  1  0  0  0  0
 22 52  1  0  0  0  0
 24 53  1  0  0  0  0
 24 54  1  0  0  0  0
 24 55  1  0  0  0  0
 25 56  1  0  0  0  0
 25 57  1  0  0  0  0
 25 58  1  0  0  0  0
 26 59  1  0  0  0  0
 26 60  1  0  0  0  0
 29 61  1  0  0  0  0
M  CHG  1  29   1
M  END
> <SMILES>
COc1cc2c(cc1OCc1ccccc1)N(CC12CCN(C)CC1)c1ccnc(c1)F

> <FORMATTED_ID>
H3D-012483

> <MOLFORMULA>
C26H28FN3O2

> <Exact Mass>
433.22

> <XLogP>
5.4

> <TPSA_NOPS>
37.8

> <s_m_source_file>
ligprep_h3d.sdf

> <i_m_source_file_index>
5084

> <i_lp_mmshare_version>
55123

> <i_f3d_flags>
0

> <s_epik_input>
W2NIXTFbY0hdW2NIXVtjSF1bY0hdYzFbQ0gyXU9jKGMoW2NIXTIpT1tDSDNdKVtjSF1jKGMyQzM0W0NIMl1bQ0gyXU4oW0NIM10pW0NIMl1bQ0gyXTQpTihbQ0gyXTMpYzVbY0hdW2NIXW5jKEYpW2NIXTU=

> <s_epik_cmdline>
J2VwaWtfcHl0aG9uJywgJy1waHQnLCAnMC41JywgJy1waCcsICc3LjUnLCAnLXRuJywgJzgnLCAnLW1hJywgJzUwMCcsICctaW1hZScsICc8aW5maWxlLm1hZT4nLCAnLW9tYWUnLCAnPG91dGZpbGUubWFlPic=

> <r_lp_tautomer_probability>
1

> <r_epik_Ionization_Penalty>
0.00691238

> <r_epik_Ionization_Penalty_Charging>
0.00689193

> <r_epik_Ionization_Penalty_Neutral>
2.04523e-05

> <r_epik_State_Penalty>
-0

> <r_epik_Charging_Adjusted_Penalty>
0.00689193

> <i_epik_Tot_Q>
1

> <i_epik_Tot_abs_Q>
1

> <s_lp_Force_Field>
S-OPLS

> <r_lp_Energy>
67.5976

> <b_lp_Chiralities_Consistent>
1

> <s_lp_Variant>
ligprep_h3d.sdf:5084-1

> <ROCS_ShapeQuery>
_7L13

> <ROCS_TanimotoCombo>
0.783 

> <ROCS_ShapeTanimoto>
0.674 

> <ROCS_ColorTanimoto>
0.109 

> <ROCS_RefTversky>
0.763 

> <ROCS_RefColorTversky>
0.206 

> <ROCS_RefTverskyCombo>
0.969 

> <ROCS_FitTversky>
0.852 

> <ROCS_FitColorTversky>
0.187 

> <ROCS_FitTverskyCombo>
1.039 

> <ROCS_ColorScore>
-1.864

> <ROCS_Overlap>
1260.450

> <ROCS_Rank>
672                 

$$$$
ligprep_h3d.sdf:1065_454
  -OEChem-08212117123D

 62 68  0     1  0  0  0  0  0999 V2000
  -21.0457   -5.2145  -29.4884 C   0  0  0  0  0  0  0  0  0  0  0  0
  -19.0290   -2.0677  -34.3359 C   0  0  0  0  0  0  0  0  0  0  0  0
  -21.7770   -4.4223  -30.3760 C   0  0  0  0  0  0  0  0  0  0  0  0
  -21.1480   -4.9537  -28.1008 C   0  0  0  0  0  0  0  0  0  0  0  0
  -21.9932   -3.9473  -27.5761 C   0  0  0  0  0  0  0  0  0  0  0  0
  -22.5721   -3.4222  -29.8609 C   0  0  0  0  0  0  0  0  0  0  0  0
  -22.7082   -3.1489  -28.4996 C   0  0  0  0  0  0  0  0  0  0  0  0
  -21.9652   -4.3174  -31.7667 C   0  0  0  0  0  0  0  0  0  0  0  0
  -19.5081   -4.0031  -33.7178 C   0  0  0  0  0  0  0  0  0  0  0  0
  -18.9063   -3.9488  -26.2352 C   0  0  0  0  0  0  0  0  0  0  0  0
  -19.3356   -6.1303  -24.9869 C   0  0  0  0  0  0  0  0  0  0  0  0
  -17.1207   -5.3685  -25.8147 C   0  0  0  0  0  0  0  0  0  0  0  0
  -22.0808   -5.9221  -33.5938 C   0  0  0  0  0  0  0  0  0  0  0  0
  -20.3348   -5.8117  -27.1689 C   0  0  0  0  0  0  0  0  0  0  0  0
  -23.0115   -2.7449  -25.6525 C   0  0  0  0  0  0  0  0  0  0  0  0
  -19.8753   -6.4539  -33.8801 C   0  0  0  0  0  0  0  0  0  0  0  0
  -19.9442   -5.2206  -32.9958 C   0  0  2  0  0  0  0  0  0  0  0  0
  -21.2331   -4.4836  -25.2267 C   0  0  2  0  0  0  0  0  0  0  0  0
  -23.3939   -3.0332  -24.1978 C   0  0  1  0  0  0  0  0  0  0  0  0
  -21.0363   -3.5436  -24.0012 C   0  0  2  0  0  0  0  0  0  0  0  0
  -19.9311   -5.0519  -25.8812 C   0  0  2  0  0  0  0  0  0  0  0  0
  -24.4252   -4.1530  -24.0725 C   0  0  0  0  0  0  0  0  0  0  0  0
  -20.0962   -4.0422  -22.9109 C   0  0  0  0  0  0  0  0  0  0  0  0
  -18.7947   -5.1678  -35.8389 C   0  0  0  0  0  0  0  0  0  0  0  0
  -19.5373   -2.7664  -33.2784 N   0  0  0  0  0  0  0  0  0  0  0  0
  -18.6871   -2.7944  -35.4019 N   0  0  0  0  0  0  0  0  0  0  0  0
  -22.8065   -3.3312  -32.0915 N   0  0  0  0  0  0  0  0  0  0  0  0
  -17.6600   -4.3522  -26.4891 N   0  5  0  0  0  0  0  0  0  0  0  0
  -19.0035   -4.0283  -34.9806 N   0  0  0  0  0  0  0  0  0  0  0  0
  -17.9568   -6.1745  -25.0443 N   0  0  0  0  0  0  0  0  0  0  0  0
  -22.0941   -3.7542  -26.1961 N   0  0  3  0  0  0  0  0  0  0  0  0
  -21.3589   -5.1245  -32.7092 N   0  0  0  0  0  0  0  0  0  0  0  0
  -19.2670   -2.7814  -26.3836 O   0  0  0  0  0  0  0  0  0  0  0  0
  -20.0045   -6.9331  -24.3399 O   0  0  0  0  0  0  0  0  0  0  0  0
  -15.9172   -5.6375  -25.8585 O   0  0  0  0  0  0  0  0  0  0  0  0
  -23.2970   -6.0190  -33.6948 O   0  0  0  0  0  0  0  0  0  0  0  0
  -23.1880   -2.7643  -30.8810 O   0  0  0  0  0  0  0  0  0  0  0  0
  -21.2036   -6.6188  -34.3919 O   0  0  0  0  0  0  0  0  0  0  0  0
  -22.2935   -3.3338  -23.3445 O   0  0  0  0  0  0  0  0  0  0  0  0
  -23.4297   -2.0796  -28.1427 F   0  0  0  0  0  0  0  0  0  0  0  0
  -20.4032   -6.0089  -29.8571 H   0  0  0  0  0  0  0  0  0  0  0  0
  -18.9038   -0.9955  -34.3292 H   0  0  0  0  0  0  0  0  0  0  0  0
  -20.9349   -6.6992  -26.9258 H   0  0  0  0  0  0  0  0  0  0  0  0
  -19.4387   -6.1759  -27.6886 H   0  0  0  0  0  0  0  0  0  0  0  0
  -23.9238   -2.7547  -26.2839 H   0  0  0  0  0  0  0  0  0  0  0  0
  -22.6553   -1.7041  -25.7023 H   0  0  0  0  0  0  0  0  0  0  0  0
  -19.1767   -6.3622  -34.7178 H   0  0  0  0  0  0  0  0  0  0  0  0
  -19.6282   -7.3525  -33.3043 H   0  0  0  0  0  0  0  0  0  0  0  0
  -19.3651   -5.3431  -32.0753 H   0  0  0  0  0  0  0  0  0  0  0  0
  -21.8443   -5.3351  -24.8865 H   0  0  0  0  0  0  0  0  0  0  0  0
  -23.9034   -2.1017  -23.7690 H   0  0  0  0  0  0  0  0  0  0  0  0
  -20.6641   -2.5531  -24.3194 H   0  0  0  0  0  0  0  0  0  0  0  0
  -24.0141   -5.0841  -24.4629 H   0  0  0  0  0  0  0  0  0  0  0  0
  -25.3224   -3.8986  -24.6369 H   0  0  0  0  0  0  0  0  0  0  0  0
  -24.6944   -4.2967  -23.0259 H   0  0  0  0  0  0  0  0  0  0  0  0
  -20.4194   -5.0220  -22.5590 H   0  0  0  0  0  0  0  0  0  0  0  0
  -20.0969   -3.3471  -22.0712 H   0  0  0  0  0  0  0  0  0  0  0  0
  -19.0818   -4.1238  -23.3017 H   0  0  0  0  0  0  0  0  0  0  0  0
  -19.7048   -5.3198  -36.4252 H   0  0  0  0  0  0  0  0  0  0  0  0
  -17.9431   -4.9763  -36.4977 H   0  0  0  0  0  0  0  0  0  0  0  0
  -18.5822   -6.0480  -35.2257 H   0  0  0  0  0  0  0  0  0  0  0  0
  -17.5020   -6.8706  -24.4610 H   0  0  0  0  0  0  0  0  0  0  0  0
  1  3  2  0  0  0  0
  1  4  1  0  0  0  0
  2 25  1  0  0  0  0
  2 26  2  0  0  0  0
  3  6  1  0  0  0  0
  3  8  1  0  0  0  0
  4  5  2  0  0  0  0
  4 14  1  0  0  0  0
  5  7  1  0  0  0  0
  5 31  1  0  0  0  0
  6  7  2  0  0  0  0
  6 37  1  0  0  0  0
  7 40  1  0  0  0  0
  8 27  2  0  0  0  0
  8 32  1  0  0  0  0
  9 17  1  0  0  0  0
  9 25  2  0  0  0  0
  9 29  1  0  0  0  0
 10 21  1  0  0  0  0
 10 28  1  0  0  0  0
 10 33  2  0  0  0  0
 11 21  1  0  0  0  0
 11 30  1  0  0  0  0
 11 34  2  0  0  0  0
 12 28  1  0  0  0  0
 12 30  1  0  0  0  0
 12 35  2  0  0  0  0
 13 32  1  0  0  0  0
 13 36  2  0  0  0  0
 13 38  1  0  0  0  0
 14 21  1  0  0  0  0
 15 19  1  0  0  0  0
 15 31  1  0  0  0  0
 16 17  1  0  0  0  0
 16 38  1  0  0  0  0
 17 32  1  0  0  0  0
 18 20  1  0  0  0  0
 18 21  1  0  0  0  0
 18 31  1  0  0  0  0
 19 22  1  0  0  0  0
 19 39  1  0  0  0  0
 20 23  1  0  0  0  0
 20 39  1  0  0  0  0
 24 29  1  0  0  0  0
 26 29  1  0  0  0  0
 27 37  1  0  0  0  0
  1 41  1  0  0  0  0
  2 42  1  0  0  0  0
 14 43  1  0  0  0  0
 14 44  1  0  0  0  0
 15 45  1  0  0  0  0
 15 46  1  0  0  0  0
 16 47  1  0  0  0  0
 16 48  1  0  0  0  0
 17 49  1  0  0  0  0
 18 50  1  0  0  0  0
 19 51  1  0  0  0  0
 20 52  1  0  0  0  0
 22 53  1  0  0  0  0
 22 54  1  0  0  0  0
 22 55  1  0  0  0  0
 23 56  1  0  0  0  0
 23 57  1  0  0  0  0
 23 58  1  0  0  0  0
 24 59  1  0  0  0  0
 24 60  1  0  0  0  0
 24 61  1  0  0  0  0
 30 62  1  0  0  0  0
M  CHG  1  28  -1
M  END
> <SMILES>
C[C@@H]1CN2[C@H]([C@H](C)O1)C1(Cc3cc4c(noc4c(c32)F)N2[C@@H](COC2=O)c2ncnn2C)C(=O)NC(=O)NC1=O

> <FORMATTED_ID>
H3D-006627

> <MOLFORMULA>
C24H23FN8O7

> <Exact Mass>
554.17

> <XLogP>
0.96

> <TPSA_NOPS>
174.3

> <s_m_source_file>
ligprep_h3d.sdf

> <i_m_source_file_index>
1065

> <i_lp_mmshare_version>
55123

> <i_f3d_flags>
0

> <s_epik_input>
Tz1DMVtOSF1DKD1PKVtOSF1DKD1PKUMxMltDQEBIXTNOKFtDSDJdW0NAQEhdKFtDSDNdKU9bQ0BIXTNbQ0gzXSljNGMoW0NIMl0yKVtjSF1jNWMoYzRGKW9uYzVONltDQEBIXShbQ0gyXU9DNj1PKWM3bltjSF1ubjdbQ0gzXQ==

> <s_epik_cmdline>
J2VwaWtfcHl0aG9uJywgJy1waHQnLCAnMC41JywgJy1waCcsICc3LjUnLCAnLXRuJywgJzgnLCAnLW1hJywgJzUwMCcsICctaW1hZScsICc8aW5maWxlLm1hZT4nLCAnLW9tYWUnLCAnPG91dGZpbGUubWFlPic=

> <r_lp_tautomer_probability>
1

> <r_epik_Ionization_Penalty>
0.455394

> <r_epik_Ionization_Penalty_Charging>
0.455373

> <r_epik_Ionization_Penalty_Neutral>
2.0506e-05

> <r_epik_State_Penalty>
0.458483

> <r_epik_Charging_Adjusted_Penalty>
0.913857

> <i_epik_Tot_Q>
-1

> <i_epik_Tot_abs_Q>
1

> <s_epik_Chemistry_Notes>
This compound has an ester and may undergo hydrolysis at high or low pH.

> <s_lp_Force_Field>
S-OPLS

> <r_lp_Energy>
45.1915

> <b_lp_Chiralities_Consistent>
1

> <s_lp_Variant>
ligprep_h3d.sdf:1065-2

> <ROCS_ShapeQuery>
_7L13

> <ROCS_TanimotoCombo>
0.665 

> <ROCS_ShapeTanimoto>
0.550 

> <ROCS_ColorTanimoto>
0.114 

> <ROCS_RefTversky>
0.763 

> <ROCS_RefColorTversky>
0.294 

> <ROCS_RefTverskyCombo>
1.057 

> <ROCS_FitTversky>
0.664 

> <ROCS_FitColorTversky>
0.158 

> <ROCS_FitTverskyCombo>
0.821 

> <ROCS_ColorScore>
-2.778

> <ROCS_Overlap>
1278.184

> <ROCS_Rank>
673                 

$$$$
ligprep_h3d.sdf:4453_1816
  -OEChem-08212117123D

 62 67  0     1  0  0  0  0  0999 V2000
  -19.6907   -5.3415  -36.2541 C   0  0  0  0  0  0  0  0  0  0  0  0
  -19.1376   -6.0746  -37.3039 C   0  0  0  0  0  0  0  0  0  0  0  0
  -20.9341   -4.9452  -25.4551 C   0  0  0  0  0  0  0  0  0  0  0  0
  -20.2839   -7.3969  -35.1313 C   0  0  0  0  0  0  0  0  0  0  0  0
  -22.6665   -3.6544  -26.5121 C   0  0  0  0  0  0  0  0  0  0  0  0
  -21.7438   -4.7207  -30.6557 C   0  0  0  0  0  0  0  0  0  0  0  0
  -20.4257   -5.1977  -26.7191 C   0  0  0  0  0  0  0  0  0  0  0  0
  -22.4190   -2.6073  -32.3959 C   0  0  0  0  0  0  0  0  0  0  0  0
  -20.2639   -6.0027  -35.1677 C   0  0  0  0  0  0  0  0  0  0  0  0
  -22.0761   -4.1580  -25.3583 C   0  0  0  0  0  0  0  0  0  0  0  0
  -19.7308   -8.1300  -36.1812 C   0  0  0  0  0  0  0  0  0  0  0  0
  -21.7807   -3.7431  -32.8950 C   0  0  0  0  0  0  0  0  0  0  0  0
  -21.4595   -4.7702  -32.0134 C   0  0  0  0  0  0  0  0  0  0  0  0
  -19.1576   -7.4688  -37.2675 C   0  0  0  0  0  0  0  0  0  0  0  0
  -22.0805   -3.9646  -27.7287 C   0  0  0  0  0  0  0  0  0  0  0  0
  -22.3782   -3.5521  -30.2594 C   0  0  0  0  0  0  0  0  0  0  0  0
  -20.8356   -5.2440  -34.0818 C   0  0  0  0  0  0  0  0  0  0  0  0
  -22.6560   -3.8607  -24.0421 C   0  0  0  0  0  0  0  0  0  0  0  0
  -27.4728   -7.4924  -23.8837 C   0  0  0  0  0  0  0  0  0  0  0  0
  -26.6870   -6.7332  -24.9546 C   0  0  0  0  0  0  0  0  0  0  0  0
  -24.5663   -3.9701  -22.4781 C   0  0  0  0  0  0  0  0  0  0  0  0
  -24.8598   -4.9062  -24.7835 C   0  0  0  0  0  0  0  0  0  0  0  0
  -27.1867   -6.7887  -22.5560 C   0  0  0  0  0  0  0  0  0  0  0  0
  -25.3359   -5.1482  -21.8850 C   0  0  0  0  0  0  0  0  0  0  0  0
  -25.5565   -6.1049  -24.1676 C   0  0  1  0  0  0  0  0  0  0  0  0
  -19.7528   -9.6209  -36.1393 C   0  0  0  0  0  0  0  0  0  0  0  0
  -20.9714   -4.7260  -27.8624 N   0  0  0  0  0  0  0  0  0  0  0  0
  -22.7136   -2.5217  -31.0748 N   0  0  0  0  0  0  0  0  0  0  0  0
  -21.3861   -4.0541  -34.1750 N   0  0  0  0  0  0  0  0  0  0  0  0
  -20.8559   -5.7177  -32.7992 N   0  0  0  0  0  0  0  0  0  0  0  0
  -23.9705   -4.2699  -23.7896 N   0  0  0  0  0  0  0  0  0  0  0  0
  -22.6930   -3.4438  -28.8956 N   0  0  0  0  0  0  0  0  0  0  0  0
  -26.2781   -5.6508  -22.9287 N   0  3  1  0  0  0  0  0  0  0  0  0
  -21.9289   -3.2580  -23.2536 O   0  0  0  0  0  0  0  0  0  0  0  0
  -18.6256   -8.1647  -38.2820 F   0  0  0  0  0  0  0  0  0  0  0  0
  -20.3440  -10.1281  -35.0172 F   0  0  0  0  0  0  0  0  0  0  0  0
  -20.4266  -10.1871  -37.1837 F   0  0  0  0  0  0  0  0  0  0  0  0
  -18.5018  -10.1655  -36.1721 F   0  0  0  0  0  0  0  0  0  0  0  0
  -19.6674   -4.2551  -36.2970 H   0  0  0  0  0  0  0  0  0  0  0  0
  -18.6904   -5.5609  -38.1499 H   0  0  0  0  0  0  0  0  0  0  0  0
  -20.4491   -5.3540  -24.5751 H   0  0  0  0  0  0  0  0  0  0  0  0
  -20.7295   -7.9190  -34.2868 H   0  0  0  0  0  0  0  0  0  0  0  0
  -23.5586   -3.0373  -26.4569 H   0  0  0  0  0  0  0  0  0  0  0  0
  -21.4886   -5.5253  -29.9777 H   0  0  0  0  0  0  0  0  0  0  0  0
  -19.5369   -5.8064  -26.8488 H   0  0  0  0  0  0  0  0  0  0  0  0
  -22.7021   -1.7629  -33.0117 H   0  0  0  0  0  0  0  0  0  0  0  0
  -28.5425   -7.5031  -24.1157 H   0  0  0  0  0  0  0  0  0  0  0  0
  -27.1326   -8.5329  -23.8308 H   0  0  0  0  0  0  0  0  0  0  0  0
  -26.3276   -7.3987  -25.7452 H   0  0  0  0  0  0  0  0  0  0  0  0
  -27.3226   -5.9683  -25.4168 H   0  0  0  0  0  0  0  0  0  0  0  0
  -25.2394   -3.1167  -22.6273 H   0  0  0  0  0  0  0  0  0  0  0  0
  -23.7919   -3.6470  -21.7745 H   0  0  0  0  0  0  0  0  0  0  0  0
  -24.3051   -5.2206  -25.6713 H   0  0  0  0  0  0  0  0  0  0  0  0
  -25.5799   -4.1431  -25.1031 H   0  0  0  0  0  0  0  0  0  0  0  0
  -28.0809   -6.3684  -22.0876 H   0  0  0  0  0  0  0  0  0  0  0  0
  -26.6548   -7.4437  -21.8584 H   0  0  0  0  0  0  0  0  0  0  0  0
  -24.6704   -5.9696  -21.5984 H   0  0  0  0  0  0  0  0  0  0  0  0
  -25.9341   -4.8378  -21.0228 H   0  0  0  0  0  0  0  0  0  0  0  0
  -24.8284   -6.8700  -23.8636 H   0  0  0  0  0  0  0  0  0  0  0  0
  -20.4914   -6.6066  -32.4821 H   0  0  0  0  0  0  0  0  0  0  0  0
  -23.5161   -2.8862  -28.7004 H   0  0  0  0  0  0  0  0  0  0  0  0
  -26.8900   -4.8640  -23.1902 H   0  0  0  0  0  0  0  0  0  0  0  0
  1  2  1  0  0  0  0
  1  9  2  0  0  0  0
  2 14  2  0  0  0  0
  3  7  1  0  0  0  0
  3 10  2  0  0  0  0
  4  9  1  0  0  0  0
  4 11  2  0  0  0  0
  5 10  1  0  0  0  0
  5 15  2  0  0  0  0
  6 13  2  0  0  0  0
  6 16  1  0  0  0  0
  7 27  2  0  0  0  0
  8 12  2  0  0  0  0
  8 28  1  0  0  0  0
  9 17  1  0  0  0  0
 10 18  1  0  0  0  0
 11 14  1  0  0  0  0
 11 26  1  0  0  0  0
 12 13  1  0  0  0  0
 12 29  1  0  0  0  0
 13 30  1  0  0  0  0
 14 35  1  0  0  0  0
 15 27  1  0  0  0  0
 15 32  1  0  0  0  0
 16 28  2  0  0  0  0
 16 32  1  0  0  0  0
 17 29  2  0  0  0  0
 17 30  1  0  0  0  0
 18 31  1  0  0  0  0
 18 34  2  0  0  0  0
 19 20  1  0  0  0  0
 19 23  1  0  0  0  0
 20 25  1  0  0  0  0
 21 24  1  0  0  0  0
 21 31  1  0  0  0  0
 22 25  1  0  0  0  0
 22 31  1  0  0  0  0
 23 33  1  0  0  0  0
 24 33  1  0  0  0  0
 25 33  1  0  0  0  0
 26 36  1  0  0  0  0
 26 37  1  0  0  0  0
 26 38  1  0  0  0  0
  1 39  1  0  0  0  0
  2 40  1  0  0  0  0
  3 41  1  0  0  0  0
  4 42  1  0  0  0  0
  5 43  1  0  0  0  0
  6 44  1  0  0  0  0
  7 45  1  0  0  0  0
  8 46  1  0  0  0  0
 19 47  1  0  0  0  0
 19 48  1  0  0  0  0
 20 49  1  0  0  0  0
 20 50  1  0  0  0  0
 21 51  1  0  0  0  0
 21 52  1  0  0  0  0
 22 53  1  0  0  0  0
 22 54  1  0  0  0  0
 23 55  1  0  0  0  0
 23 56  1  0  0  0  0
 24 57  1  0  0  0  0
 24 58  1  0  0  0  0
 25 59  1  0  0  0  0
 30 60  1  0  0  0  0
 32 61  1  0  0  0  0
 33 62  1  0  0  0  0
M  CHG  1  33   1
M  END
> <SMILES>
Fc1ccc(cc1C(F)(F)F)-c1nc2cnc(cc2[nH]1)Nc1cc(ccn1)C(=O)N1CCN2CCCC2C1

> <FORMATTED_ID>
H3D-004118

> <MOLFORMULA>
C26H23F4N7O

> <Exact Mass>
525.19

> <XLogP>
4.8

> <TPSA_NOPS>
90

> <s_m_source_file>
ligprep_h3d.sdf

> <i_m_source_file_index>
4453

> <i_lp_mmshare_version>
55123

> <i_f3d_flags>
0

> <s_epik_input>
RmMxW2NIXVtjSF1jKFtjSF1jMUMoRikoRilGKS1jKG4yKVtuSF1jKGMyMylbY0hdYyhuW2NIXTMpW05IXWM0W2NIXWMoW2NIXVtjSF1uNClDKD1PKU4oW0NIMl1bQ0gyXTUpW0NIMl1bQ0BASF0oTjU2KVtDSDJdW0NIMl1bQ0gyXTY=

> <s_epik_cmdline>
J2VwaWtfcHl0aG9uJywgJy1waHQnLCAnMC41JywgJy1waCcsICc3LjUnLCAnLXRuJywgJzgnLCAnLW1hJywgJzUwMCcsICctaW1hZScsICc8aW5maWxlLm1hZT4nLCAnLW9tYWUnLCAnPG91dGZpbGUubWFlPic=

> <r_lp_tautomer_probability>
1

> <r_epik_Ionization_Penalty>
0.136729

> <r_epik_Ionization_Penalty_Charging>
0.136358

> <r_epik_Ionization_Penalty_Neutral>
0.000370827

> <r_epik_State_Penalty>
-0

> <r_epik_Charging_Adjusted_Penalty>
0.136358

> <i_epik_Tot_Q>
1

> <i_epik_Tot_abs_Q>
1

> <s_lp_Force_Field>
S-OPLS

> <r_lp_Energy>
61.8286

> <b_lp_Chiralities_Consistent>
1

> <s_lp_Variant>
ligprep_h3d.sdf:4453-1

> <ROCS_ShapeQuery>
_7L13

> <ROCS_TanimotoCombo>
0.730 

> <ROCS_ShapeTanimoto>
0.583 

> <ROCS_ColorTanimoto>
0.147 

> <ROCS_RefTversky>
0.763 

> <ROCS_RefColorTversky>
0.319 

> <ROCS_RefTverskyCombo>
1.082 

> <ROCS_FitTversky>
0.712 

> <ROCS_FitColorTversky>
0.214 

> <ROCS_FitTverskyCombo>
0.926 

> <ROCS_ColorScore>
-2.953

> <ROCS_Overlap>
1272.413

> <ROCS_Rank>
674                 

$$$$
ligprep_h3d.sdf:1053_7
  -OEChem-08212117123D

 61 66  0     1  0  0  0  0  0999 V2000
  -20.9473   -5.1217  -29.5065 C   0  0  0  0  0  0  0  0  0  0  0  0
  -21.7323   -4.3749  -30.3871 C   0  0  0  0  0  0  0  0  0  0  0  0
  -21.0664   -4.8819  -28.1158 C   0  0  0  0  0  0  0  0  0  0  0  0
  -21.9802   -3.9432  -27.5817 C   0  0  0  0  0  0  0  0  0  0  0  0
  -22.5950   -3.4377  -29.8628 C   0  0  0  0  0  0  0  0  0  0  0  0
  -22.7487   -3.1876  -28.4989 C   0  0  0  0  0  0  0  0  0  0  0  0
  -21.9281   -4.2705  -31.7768 C   0  0  0  0  0  0  0  0  0  0  0  0
  -21.2645   -5.0299  -32.7935 C   0  0  0  0  0  0  0  0  0  0  0  0
  -18.9193   -3.7878  -26.1971 C   0  0  0  0  0  0  0  0  0  0  0  0
  -19.2309   -6.0585  -25.0167 C   0  0  0  0  0  0  0  0  0  0  0  0
  -16.9812   -5.2653  -25.7153 C   0  0  0  0  0  0  0  0  0  0  0  0
  -20.1899   -5.6907  -27.1972 C   0  0  0  0  0  0  0  0  0  0  0  0
  -23.0635   -2.8127  -25.6500 C   0  0  0  0  0  0  0  0  0  0  0  0
  -21.2058   -4.4673  -25.2344 C   0  0  2  0  0  0  0  0  0  0  0  0
  -20.2684   -6.7975  -33.8667 C   0  0  2  0  0  0  0  0  0  0  0  0
  -20.2894   -5.5683  -34.8004 C   0  0  2  0  0  0  0  0  0  0  0  0
  -23.4328   -3.1295  -24.1981 C   0  0  1  0  0  0  0  0  0  0  0  0
  -21.0547   -3.5306  -24.0006 C   0  0  2  0  0  0  0  0  0  0  0  0
  -19.8693   -4.9527  -25.8734 C   0  0  0  0  0  0  0  0  0  0  0  0
  -21.1707   -7.9198  -34.3511 C   0  0  0  0  0  0  0  0  0  0  0  0
  -18.9012   -5.0158  -35.0760 C   0  0  0  0  0  0  0  0  0  0  0  0
  -24.4057   -4.3013  -24.0809 C   0  0  0  0  0  0  0  0  0  0  0  0
  -20.0963   -4.0014  -22.9132 C   0  0  0  0  0  0  0  0  0  0  0  0
  -22.8371   -3.3429  -32.0923 N   0  0  0  0  0  0  0  0  0  0  0  0
  -20.8267   -6.2680  -32.6119 N   0  0  0  0  0  0  0  0  0  0  0  0
  -17.5723   -4.1134  -26.2142 N   0  0  0  0  0  0  0  0  0  0  0  0
  -17.8522   -6.1634  -25.1151 N   0  0  0  0  0  0  0  0  0  0  0  0
  -22.0952   -3.7699  -26.2003 N   0  0  3  0  0  0  0  0  0  0  0  0
  -21.0327   -4.5699  -34.0149 N   0  3  0  0  0  0  0  0  0  0  0  0
  -19.3114   -2.6573  -26.4860 O   0  0  0  0  0  0  0  0  0  0  0  0
  -19.8943   -6.8583  -24.3554 O   0  0  0  0  0  0  0  0  0  0  0  0
  -15.7652   -5.4580  -25.7651 O   0  0  0  0  0  0  0  0  0  0  0  0
  -23.2563   -2.8152  -30.8766 O   0  0  0  0  0  0  0  0  0  0  0  0
  -22.3196   -3.3771  -23.3448 O   0  0  0  0  0  0  0  0  0  0  0  0
  -23.5428   -2.1734  -28.1361 F   0  0  0  0  0  0  0  0  0  0  0  0
  -20.2513   -5.8661  -29.8825 H   0  0  0  0  0  0  0  0  0  0  0  0
  -20.7083   -6.6391  -26.9991 H   0  0  0  0  0  0  0  0  0  0  0  0
  -19.2547   -5.9459  -27.7145 H   0  0  0  0  0  0  0  0  0  0  0  0
  -23.9735   -2.8649  -26.2833 H   0  0  0  0  0  0  0  0  0  0  0  0
  -22.7631   -1.7543  -25.6908 H   0  0  0  0  0  0  0  0  0  0  0  0
  -21.7750   -5.3515  -24.9079 H   0  0  0  0  0  0  0  0  0  0  0  0
  -19.2556   -7.1695  -33.6816 H   0  0  0  0  0  0  0  0  0  0  0  0
  -20.8219   -5.7592  -35.7377 H   0  0  0  0  0  0  0  0  0  0  0  0
  -23.9898   -2.2273  -23.7651 H   0  0  0  0  0  0  0  0  0  0  0  0
  -20.7200   -2.5240  -24.3120 H   0  0  0  0  0  0  0  0  0  0  0  0
  -22.1782   -7.5416  -34.5335 H   0  0  0  0  0  0  0  0  0  0  0  0
  -21.2240   -8.7110  -33.6012 H   0  0  0  0  0  0  0  0  0  0  0  0
  -20.7817   -8.3423  -35.2794 H   0  0  0  0  0  0  0  0  0  0  0  0
  -18.3769   -4.8282  -34.1373 H   0  0  0  0  0  0  0  0  0  0  0  0
  -18.9718   -4.0787  -35.6311 H   0  0  0  0  0  0  0  0  0  0  0  0
  -18.3215   -5.7291  -35.6647 H   0  0  0  0  0  0  0  0  0  0  0  0
  -23.9469   -5.2079  -24.4756 H   0  0  0  0  0  0  0  0  0  0  0  0
  -25.3138   -4.0899  -24.6457 H   0  0  0  0  0  0  0  0  0  0  0  0
  -24.6690   -4.4642  -23.0357 H   0  0  0  0  0  0  0  0  0  0  0  0
  -20.3828   -4.9950  -22.5687 H   0  0  0  0  0  0  0  0  0  0  0  0
  -20.1236   -3.3127  -22.0688 H   0  0  0  0  0  0  0  0  0  0  0  0
  -19.0798   -4.0418  -23.3044 H   0  0  0  0  0  0  0  0  0  0  0  0
  -20.9322   -6.7416  -31.7214 H   0  0  0  0  0  0  0  0  0  0  0  0
  -16.9488   -3.4337  -26.6389 H   0  0  0  0  0  0  0  0  0  0  0  0
  -17.4263   -6.9605  -24.6510 H   0  0  0  0  0  0  0  0  0  0  0  0
  -21.3223   -3.6387  -34.2937 H   0  0  0  0  0  0  0  0  0  0  0  0
  1  2  2  0  0  0  0
  1  3  1  0  0  0  0
  2  5  1  0  0  0  0
  2  7  1  0  0  0  0
  3  4  2  0  0  0  0
  3 12  1  0  0  0  0
  4  6  1  0  0  0  0
  4 28  1  0  0  0  0
  5  6  2  0  0  0  0
  5 33  1  0  0  0  0
  6 35  1  0  0  0  0
  7  8  1  0  0  0  0
  7 24  2  0  0  0  0
  8 25  1  0  0  0  0
  8 29  2  0  0  0  0
  9 19  1  0  0  0  0
  9 26  1  0  0  0  0
  9 30  2  0  0  0  0
 10 19  1  0  0  0  0
 10 27  1  0  0  0  0
 10 31  2  0  0  0  0
 11 26  1  0  0  0  0
 11 27  1  0  0  0  0
 11 32  2  0  0  0  0
 12 19  1  0  0  0  0
 13 17  1  0  0  0  0
 13 28  1  0  0  0  0
 14 18  1  0  0  0  0
 14 19  1  0  0  0  0
 14 28  1  0  0  0  0
 15 16  1  0  0  0  0
 15 20  1  0  0  0  0
 15 25  1  0  0  0  0
 16 21  1  0  0  0  0
 16 29  1  0  0  0  0
 17 22  1  0  0  0  0
 17 34  1  0  0  0  0
 18 23  1  0  0  0  0
 18 34  1  0  0  0  0
 24 33  1  0  0  0  0
  1 36  1  0  0  0  0
 12 37  1  0  0  0  0
 12 38  1  0  0  0  0
 13 39  1  0  0  0  0
 13 40  1  0  0  0  0
 14 41  1  0  0  0  0
 15 42  1  0  0  0  0
 16 43  1  0  0  0  0
 17 44  1  0  0  0  0
 18 45  1  0  0  0  0
 20 46  1  0  0  0  0
 20 47  1  0  0  0  0
 20 48  1  0  0  0  0
 21 49  1  0  0  0  0
 21 50  1  0  0  0  0
 21 51  1  0  0  0  0
 22 52  1  0  0  0  0
 22 53  1  0  0  0  0
 22 54  1  0  0  0  0
 23 55  1  0  0  0  0
 23 56  1  0  0  0  0
 23 57  1  0  0  0  0
 25 58  1  0  0  0  0
 26 59  1  0  0  0  0
 27 60  1  0  0  0  0
 29 61  1  0  0  0  0
M  CHG  1  29   1
M  END
> <SMILES>
C[C@@H]1CN2[C@H]([C@H](C)O1)C1(Cc3cc4c(noc4c(c32)F)C2=N[C@@H](C)[C@H](C)N2)C(=O)NC(=O)NC1=O

> <FORMATTED_ID>
H3D-006615

> <MOLFORMULA>
C23H25FN6O5

> <Exact Mass>
484.19

> <XLogP>
0.23

> <TPSA_NOPS>
138.5

> <s_m_source_file>
ligprep_h3d.sdf

> <i_m_source_file_index>
1053

> <i_lp_mmshare_version>
55123

> <i_f3d_flags>
0

> <s_epik_input>
Tz1DMVtOSF1DKD1PKVtOSF1DKD1PKUMxMltDQEBIXTNOKFtDSDJdW0NAQEhdKFtDSDNdKU9bQ0BIXTNbQ0gzXSljNGMoW0NIMl0yKVtjSF1jNWMoYzRGKW9uYzVDNj1OW0NAQEhdKFtDSDNdKVtDQEhdKFtDSDNdKVtOSF02

> <s_epik_cmdline>
J2VwaWtfcHl0aG9uJywgJy1waHQnLCAnMC41JywgJy1waCcsICc3LjUnLCAnLXRuJywgJzgnLCAnLW1hJywgJzUwMCcsICctaW1hZScsICc8aW5maWxlLm1hZT4nLCAnLW9tYWUnLCAnPG91dGZpbGUubWFlPic=

> <r_lp_tautomer_probability>
1

> <r_epik_Ionization_Penalty>
0.39985

> <r_epik_Ionization_Penalty_Charging>
0.0307255

> <r_epik_Ionization_Penalty_Neutral>
0.369125

> <r_epik_State_Penalty>
0.536008

> <r_epik_Charging_Adjusted_Penalty>
0.566733

> <i_epik_Tot_Q>
1

> <i_epik_Tot_abs_Q>
1

> <s_epik_Chemistry_Notes>
This compound has an imine and may undergo hydrolysis.

> <s_lp_Force_Field>
S-OPLS

> <r_lp_Energy>
50.2643

> <b_lp_Chiralities_Consistent>
1

> <s_lp_Variant>
ligprep_h3d.sdf:1053-1

> <ROCS_ShapeQuery>
_7L13

> <ROCS_TanimotoCombo>
0.736 

> <ROCS_ShapeTanimoto>
0.617 

> <ROCS_ColorTanimoto>
0.119 

> <ROCS_RefTversky>
0.763 

> <ROCS_RefColorTversky>
0.294 

> <ROCS_RefTverskyCombo>
1.057 

> <ROCS_FitTversky>
0.763 

> <ROCS_FitColorTversky>
0.166 

> <ROCS_FitTverskyCombo>
0.929 

> <ROCS_ColorScore>
-2.767

> <ROCS_Overlap>
1267.225

> <ROCS_Rank>
675                 

$$$$
ligprep_h3d.sdf:5424_1780
  -OEChem-08212117123D

 74 80  0     0  0  0  0  0  0999 V2000
  -20.1727   -6.9330  -33.4034 C   0  0  0  0  0  0  0  0  0  0  0  0
  -18.9527   -4.9536  -34.0596 C   0  0  0  0  0  0  0  0  0  0  0  0
  -20.1573   -7.3804  -34.7244 C   0  0  0  0  0  0  0  0  0  0  0  0
  -18.9373   -5.4010  -35.3806 C   0  0  0  0  0  0  0  0  0  0  0  0
  -18.0651   -9.0343  -28.9722 C   0  0  0  0  0  0  0  0  0  0  0  0
  -26.4870   -5.4553  -22.8376 C   0  0  0  0  0  0  0  0  0  0  0  0
  -25.2010   -3.7555  -21.7152 C   0  0  0  0  0  0  0  0  0  0  0  0
  -16.8914   -6.0897  -27.2725 C   0  0  0  0  0  0  0  0  0  0  0  0
  -23.1642   -4.2128  -28.6849 C   0  0  0  0  0  0  0  0  0  0  0  0
  -20.3998   -4.5806  -29.0879 C   0  0  0  0  0  0  0  0  0  0  0  0
  -16.8963   -9.5572  -29.4911 C   0  0  0  0  0  0  0  0  0  0  0  0
  -27.3222   -5.5109  -21.7308 C   0  0  0  0  0  0  0  0  0  0  0  0
  -26.0688   -3.8540  -20.6369 C   0  0  0  0  0  0  0  0  0  0  0  0
  -15.5173   -7.8317  -28.6035 C   0  0  0  0  0  0  0  0  0  0  0  0
  -16.6646   -7.2589  -28.0563 C   0  0  0  0  0  0  0  0  0  0  0  0
  -22.2999   -4.3620  -27.6056 C   0  0  0  0  0  0  0  0  0  0  0  0
  -19.5705   -5.7195  -33.0710 C   0  0  0  0  0  0  0  0  0  0  0  0
  -17.9087   -7.8609  -28.2458 C   0  0  0  0  0  0  0  0  0  0  0  0
  -25.4163   -4.5666  -22.8252 C   0  0  0  0  0  0  0  0  0  0  0  0
  -20.9283   -4.5677  -27.8048 C   0  0  0  0  0  0  0  0  0  0  0  0
  -22.6393   -4.2476  -29.9756 C   0  0  0  0  0  0  0  0  0  0  0  0
  -21.2657   -4.4249  -30.1747 C   0  0  0  0  0  0  0  0  0  0  0  0
  -19.5396   -6.6145  -35.7130 C   0  0  0  0  0  0  0  0  0  0  0  0
  -18.2392   -6.0101  -27.0094 C   0  0  0  0  0  0  0  0  0  0  0  0
  -18.9607   -4.9863  -26.2408 C   0  0  0  0  0  0  0  0  0  0  0  0
  -23.3915   -5.6692  -25.7652 C   0  0  0  0  0  0  0  0  0  0  0  0
  -23.5121   -3.1631  -25.7185 C   0  0  0  0  0  0  0  0  0  0  0  0
  -23.8338   -5.7140  -24.3008 C   0  0  0  0  0  0  0  0  0  0  0  0
  -23.9079   -3.2135  -24.2427 C   0  0  0  0  0  0  0  0  0  0  0  0
  -21.2383   -4.3057  -25.5073 C   0  0  0  0  0  0  0  0  0  0  0  0
  -22.6548   -4.3678  -26.1336 C   0  0  0  0  0  0  0  0  0  0  0  0
  -23.7073   -2.7769  -31.5091 C   0  0  0  0  0  0  0  0  0  0  0  0
  -19.5861   -5.2379  -31.6500 C   0  0  0  0  0  0  0  0  0  0  0  0
  -18.8449   -7.0845  -27.6015 N   0  0  0  0  0  0  0  0  0  0  0  0
  -15.7190   -8.9578  -29.2927 N   0  3  0  0  0  0  0  0  0  0  0  0
  -27.0920   -4.7184  -20.6751 N   0  3  0  0  0  0  0  0  0  0  0  0
  -20.2784   -4.6808  -26.5591 N   0  0  0  0  0  0  0  0  0  0  0  0
  -24.5550   -4.4905  -23.9278 N   0  0  0  0  0  0  0  0  0  0  0  0
  -18.3532   -4.4991  -25.2857 O   0  0  0  0  0  0  0  0  0  0  0  0
  -23.4773   -4.1039  -31.0409 O   0  0  0  0  0  0  0  0  0  0  0  0
  -20.7536   -4.4476  -31.4393 O   0  0  0  0  0  0  0  0  0  0  0  0
  -19.5223   -7.0454  -36.9812 F   0  0  0  0  0  0  0  0  0  0  0  0
  -20.6572   -7.5363  -32.6402 H   0  0  0  0  0  0  0  0  0  0  0  0
  -18.4807   -4.0069  -33.8099 H   0  0  0  0  0  0  0  0  0  0  0  0
  -20.6255   -8.3253  -34.9832 H   0  0  0  0  0  0  0  0  0  0  0  0
  -18.4568   -4.8048  -36.1507 H   0  0  0  0  0  0  0  0  0  0  0  0
  -19.0280   -9.5055  -29.1222 H   0  0  0  0  0  0  0  0  0  0  0  0
  -26.6744   -6.0986  -23.6918 H   0  0  0  0  0  0  0  0  0  0  0  0
  -24.3716   -3.0558  -21.6822 H   0  0  0  0  0  0  0  0  0  0  0  0
  -16.1416   -5.3842  -26.9392 H   0  0  0  0  0  0  0  0  0  0  0  0
  -24.2282   -4.0676  -28.5288 H   0  0  0  0  0  0  0  0  0  0  0  0
  -19.3399   -4.7102  -29.2784 H   0  0  0  0  0  0  0  0  0  0  0  0
  -16.8643  -10.4659  -30.0778 H   0  0  0  0  0  0  0  0  0  0  0  0
  -28.1750   -6.1707  -21.6520 H   0  0  0  0  0  0  0  0  0  0  0  0
  -25.9791   -3.2642  -19.7349 H   0  0  0  0  0  0  0  0  0  0  0  0
  -14.5040   -7.4637  -28.5275 H   0  0  0  0  0  0  0  0  0  0  0  0
  -22.7590   -6.5437  -25.9784 H   0  0  0  0  0  0  0  0  0  0  0  0
  -24.2839   -5.7900  -26.3979 H   0  0  0  0  0  0  0  0  0  0  0  0
  -24.4298   -3.1290  -26.3183 H   0  0  0  0  0  0  0  0  0  0  0  0
  -22.9845   -2.2235  -25.9177 H   0  0  0  0  0  0  0  0  0  0  0  0
  -24.4811   -6.5913  -24.1602 H   0  0  0  0  0  0  0  0  0  0  0  0
  -22.9634   -5.8480  -23.6434 H   0  0  0  0  0  0  0  0  0  0  0  0
  -23.0270   -3.0762  -23.6056 H   0  0  0  0  0  0  0  0  0  0  0  0
  -24.5926   -2.3825  -24.0368 H   0  0  0  0  0  0  0  0  0  0  0  0
  -20.9767   -3.3085  -25.1407 H   0  0  0  0  0  0  0  0  0  0  0  0
  -21.1139   -5.0122  -24.6798 H   0  0  0  0  0  0  0  0  0  0  0  0
  -24.3922   -2.8036  -32.3601 H   0  0  0  0  0  0  0  0  0  0  0  0
  -22.7578   -2.3246  -31.8060 H   0  0  0  0  0  0  0  0  0  0  0  0
  -24.1531   -2.1881  -30.7039 H   0  0  0  0  0  0  0  0  0  0  0  0
  -19.5944   -6.0809  -30.9506 H   0  0  0  0  0  0  0  0  0  0  0  0
  -18.6988   -4.6322  -31.4361 H   0  0  0  0  0  0  0  0  0  0  0  0
  -19.8357   -7.2827  -27.5723 H   0  0  0  0  0  0  0  0  0  0  0  0
  -14.8975   -9.4009  -29.7056 H   0  0  0  0  0  0  0  0  0  0  0  0
  -27.7174   -4.7754  -19.8718 H   0  0  0  0  0  0  0  0  0  0  0  0
  1  3  1  0  0  0  0
  1 17  2  0  0  0  0
  2  4  2  0  0  0  0
  2 17  1  0  0  0  0
  3 23  2  0  0  0  0
  4 23  1  0  0  0  0
  5 11  1  0  0  0  0
  5 18  2  0  0  0  0
  6 12  1  0  0  0  0
  6 19  2  0  0  0  0
  7 13  2  0  0  0  0
  7 19  1  0  0  0  0
  8 15  1  0  0  0  0
  8 24  2  0  0  0  0
  9 16  1  0  0  0  0
  9 21  2  0  0  0  0
 10 20  1  0  0  0  0
 10 22  2  0  0  0  0
 11 35  2  0  0  0  0
 12 36  2  0  0  0  0
 13 36  1  0  0  0  0
 14 15  2  0  0  0  0
 14 35  1  0  0  0  0
 15 18  1  0  0  0  0
 16 20  2  0  0  0  0
 16 31  1  0  0  0  0
 17 33  1  0  0  0  0
 18 34  1  0  0  0  0
 19 38  1  0  0  0  0
 20 37  1  0  0  0  0
 21 22  1  0  0  0  0
 21 40  1  0  0  0  0
 22 41  1  0  0  0  0
 23 42  1  0  0  0  0
 24 25  1  0  0  0  0
 24 34  1  0  0  0  0
 25 37  1  0  0  0  0
 25 39  2  0  0  0  0
 26 28  1  0  0  0  0
 26 31  1  0  0  0  0
 27 29  1  0  0  0  0
 27 31  1  0  0  0  0
 28 38  1  0  0  0  0
 29 38  1  0  0  0  0
 30 31  1  0  0  0  0
 30 37  1  0  0  0  0
 32 40  1  0  0  0  0
 33 41  1  0  0  0  0
  1 43  1  0  0  0  0
  2 44  1  0  0  0  0
  3 45  1  0  0  0  0
  4 46  1  0  0  0  0
  5 47  1  0  0  0  0
  6 48  1  0  0  0  0
  7 49  1  0  0  0  0
  8 50  1  0  0  0  0
  9 51  1  0  0  0  0
 10 52  1  0  0  0  0
 11 53  1  0  0  0  0
 12 54  1  0  0  0  0
 13 55  1  0  0  0  0
 14 56  1  0  0  0  0
 26 57  1  0  0  0  0
 26 58  1  0  0  0  0
 27 59  1  0  0  0  0
 27 60  1  0  0  0  0
 28 61  1  0  0  0  0
 28 62  1  0  0  0  0
 29 63  1  0  0  0  0
 29 64  1  0  0  0  0
 30 65  1  0  0  0  0
 30 66  1  0  0  0  0
 32 67  1  0  0  0  0
 32 68  1  0  0  0  0
 32 69  1  0  0  0  0
 33 70  1  0  0  0  0
 33 71  1  0  0  0  0
 34 72  1  0  0  0  0
 35 73  1  0  0  0  0
 36 74  1  0  0  0  0
M  CHG  2  35   1  36   1
M  END
> <SMILES>
COc1cc2c(cc1OCc1ccc(cc1)F)N(CC12CCN(CC1)c1ccncc1)C(=O)c1cc2cnccc2[nH]1

> <FORMATTED_ID>
H3D-015668

> <MOLFORMULA>
C33H30FN5O3

> <Exact Mass>
563.23

> <XLogP>
5.6

> <TPSA_NOPS>
83.6

> <s_m_source_file>
ligprep_h3d.sdf

> <i_m_source_file_index>
5424

> <i_lp_mmshare_version>
55123

> <i_f3d_flags>
0

> <s_epik_input>
W2NIXTFbY0hdYyhGKVtjSF1bY0hdYzFbQ0gyXU9jKGMoW2NIXTIpT1tDSDNdKVtjSF1jKE4oW0NIMl0zKUMoPU8pYyhbY0hdNClbbkhdYyhjNDUpW2NIXVtjSF1uW2NIXTUpYzJDMzZbQ0gyXVtDSDJdTihbQ0gyXVtDSDJdNiljN1tjSF1bY0hdbltjSF1bY0hdNw==

> <s_epik_cmdline>
J2VwaWtfcHl0aG9uJywgJy1waHQnLCAnMC41JywgJy1waCcsICc3LjUnLCAnLXRuJywgJzgnLCAnLW1hJywgJzUwMCcsICctaW1hZScsICc8aW5maWxlLm1hZT4nLCAnLW9tYWUnLCAnPG91dGZpbGUubWFlPic=

> <r_lp_tautomer_probability>
1

> <r_epik_Ionization_Penalty>
0.241554

> <r_epik_Ionization_Penalty_Charging>
0.241533

> <r_epik_Ionization_Penalty_Neutral>
2.09384e-05

> <r_epik_State_Penalty>
0.226368

> <r_epik_Charging_Adjusted_Penalty>
0.467901

> <i_epik_Tot_Q>
2

> <i_epik_Tot_abs_Q>
2

> <s_lp_Force_Field>
S-OPLS

> <r_lp_Energy>
101.217

> <b_lp_Chiralities_Consistent>
1

> <s_lp_Variant>
ligprep_h3d.sdf:5424-1

> <ROCS_ShapeQuery>
_7L13

> <ROCS_TanimotoCombo>
0.591 

> <ROCS_ShapeTanimoto>
0.542 

> <ROCS_ColorTanimoto>
0.049 

> <ROCS_RefTversky>
0.763 

> <ROCS_RefColorTversky>
0.121 

> <ROCS_RefTverskyCombo>
0.884 

> <ROCS_FitTversky>
0.652 

> <ROCS_FitColorTversky>
0.076 

> <ROCS_FitTverskyCombo>
0.728 

> <ROCS_ColorScore>
-1.127

> <ROCS_Overlap>
1279.288

> <ROCS_Rank>
676                 

$$$$
ligprep_h3d.sdf:1002_802
  -OEChem-08212117123D

 68 72  0     0  0  0  0  0  0999 V2000
  -16.7408   -6.1884  -26.3619 C   0  0  0  0  0  0  0  0  0  0  0  0
  -22.6875   -4.1645  -29.0638 C   0  0  0  0  0  0  0  0  0  0  0  0
  -20.6131   -4.5109  -25.4795 C   0  0  0  0  0  0  0  0  0  0  0  0
  -16.5366   -4.7980  -26.4452 C   0  0  0  0  0  0  0  0  0  0  0  0
  -20.6405   -4.6305  -27.8940 C   0  0  0  0  0  0  0  0  0  0  0  0
  -22.0523   -4.3924  -30.2872 C   0  0  0  0  0  0  0  0  0  0  0  0
  -20.0014   -4.8596  -29.1244 C   0  0  0  0  0  0  0  0  0  0  0  0
  -22.0056   -4.2769  -27.8553 C   0  0  0  0  0  0  0  0  0  0  0  0
  -19.9536   -4.7435  -26.6778 C   0  0  0  0  0  0  0  0  0  0  0  0
  -20.7076   -4.7404  -30.3179 C   0  0  0  0  0  0  0  0  0  0  0  0
  -21.9491   -4.1702  -25.5422 C   0  0  0  0  0  0  0  0  0  0  0  0
  -18.1034   -6.3407  -26.4424 C   0  0  0  0  0  0  0  0  0  0  0  0
  -19.6605   -6.1377  -36.1665 C   0  0  0  0  0  0  0  0  0  0  0  0
  -22.6988   -3.9141  -24.3243 C   0  0  0  0  0  0  0  0  0  0  0  0
  -18.8839   -4.0123  -33.4848 C   0  0  0  0  0  0  0  0  0  0  0  0
  -18.8901   -6.4904  -33.0796 C   0  0  0  0  0  0  0  0  0  0  0  0
  -20.0508   -3.8576  -32.5081 C   0  0  0  0  0  0  0  0  0  0  0  0
  -20.0574   -6.3232  -32.1045 C   0  0  0  0  0  0  0  0  0  0  0  0
  -17.6911   -5.5508  -35.1082 C   0  0  0  0  0  0  0  0  0  0  0  0
  -18.8626   -5.3901  -34.1485 C   0  0  0  0  0  0  0  0  0  0  0  0
  -22.8478   -4.2549  -31.5450 C   0  0  0  0  0  0  0  0  0  0  0  0
  -18.5535   -5.2396  -29.2460 C   0  0  0  0  0  0  0  0  0  0  0  0
  -18.9364   -7.5590  -26.4134 C   0  0  0  0  0  0  0  0  0  0  0  0
  -27.9891   -5.7447  -22.1051 C   0  0  0  0  0  0  0  0  0  0  0  0
  -24.9512   -3.9865  -23.2233 C   0  0  0  0  0  0  0  0  0  0  0  0
  -26.0753   -5.0059  -23.2517 C   0  0  0  0  0  0  0  0  0  0  0  0
  -17.6781   -4.1157  -26.5693 N   0  0  0  0  0  0  0  0  0  0  0  0
  -22.6483   -4.0505  -26.6940 N   0  0  0  0  0  0  0  0  0  0  0  0
  -18.6127   -5.0814  -26.5647 N   0  0  0  0  0  0  0  0  0  0  0  0
  -18.2880   -6.2114  -36.2231 N   0  0  0  0  0  0  0  0  0  0  0  0
  -20.0771   -4.9676  -31.5476 N   0  0  0  0  0  0  0  0  0  0  0  0
  -24.0679   -4.2074  -24.3457 N   0  0  0  0  0  0  0  0  0  0  0  0
  -20.4524   -6.5259  -37.0133 O   0  0  0  0  0  0  0  0  0  0  0  0
  -22.1353   -3.4352  -23.3233 O   0  0  0  0  0  0  0  0  0  0  0  0
  -20.0299   -5.5322  -34.9927 O   0  0  0  0  0  0  0  0  0  0  0  0
  -26.9214   -4.8073  -22.1263 O   0  0  0  0  0  0  0  0  0  0  0  0
  -16.0016   -6.9693  -26.2584 H   0  0  0  0  0  0  0  0  0  0  0  0
  -23.7420   -3.8910  -29.0555 H   0  0  0  0  0  0  0  0  0  0  0  0
  -20.1039   -4.5907  -24.5232 H   0  0  0  0  0  0  0  0  0  0  0  0
  -15.6035   -4.2537  -26.4208 H   0  0  0  0  0  0  0  0  0  0  0  0
  -18.9689   -3.2224  -34.2421 H   0  0  0  0  0  0  0  0  0  0  0  0
  -17.9426   -3.8416  -32.9452 H   0  0  0  0  0  0  0  0  0  0  0  0
  -17.9470   -6.4884  -32.5194 H   0  0  0  0  0  0  0  0  0  0  0  0
  -18.9845   -7.4736  -33.5562 H   0  0  0  0  0  0  0  0  0  0  0  0
  -19.9410   -2.9016  -31.9804 H   0  0  0  0  0  0  0  0  0  0  0  0
  -20.9998   -3.8209  -33.0589 H   0  0  0  0  0  0  0  0  0  0  0  0
  -21.0056   -6.5294  -32.6171 H   0  0  0  0  0  0  0  0  0  0  0  0
  -19.9501   -7.0634  -31.3020 H   0  0  0  0  0  0  0  0  0  0  0  0
  -17.2355   -4.6085  -35.4240 H   0  0  0  0  0  0  0  0  0  0  0  0
  -16.9106   -6.2125  -34.7185 H   0  0  0  0  0  0  0  0  0  0  0  0
  -22.7941   -3.2254  -31.9165 H   0  0  0  0  0  0  0  0  0  0  0  0
  -22.4737   -4.9289  -32.3249 H   0  0  0  0  0  0  0  0  0  0  0  0
  -23.9004   -4.5127  -31.3770 H   0  0  0  0  0  0  0  0  0  0  0  0
  -18.4519   -6.3279  -29.2241 H   0  0  0  0  0  0  0  0  0  0  0  0
  -18.1302   -4.8608  -30.1809 H   0  0  0  0  0  0  0  0  0  0  0  0
  -17.9697   -4.8105  -28.4262 H   0  0  0  0  0  0  0  0  0  0  0  0
  -19.2290   -7.8157  -25.3821 H   0  0  0  0  0  0  0  0  0  0  0  0
  -19.8605   -7.4426  -27.0048 H   0  0  0  0  0  0  0  0  0  0  0  0
  -18.4099   -8.4304  -26.8392 H   0  0  0  0  0  0  0  0  0  0  0  0
  -28.6171   -5.5631  -21.2295 H   0  0  0  0  0  0  0  0  0  0  0  0
  -27.5838   -6.7592  -22.0720 H   0  0  0  0  0  0  0  0  0  0  0  0
  -28.5871   -5.6228  -23.0113 H   0  0  0  0  0  0  0  0  0  0  0  0
  -25.3397   -2.9653  -23.2884 H   0  0  0  0  0  0  0  0  0  0  0  0
  -24.3668   -4.0895  -22.3039 H   0  0  0  0  0  0  0  0  0  0  0  0
  -25.6646   -6.0185  -23.1910 H   0  0  0  0  0  0  0  0  0  0  0  0
  -26.6754   -4.9181  -24.1632 H   0  0  0  0  0  0  0  0  0  0  0  0
  -17.7681   -6.6750  -36.9612 H   0  0  0  0  0  0  0  0  0  0  0  0
  -24.4904   -4.5371  -25.2075 H   0  0  0  0  0  0  0  0  0  0  0  0
  1  4  1  0  0  0  0
  1 12  2  0  0  0  0
  2  6  2  0  0  0  0
  2  8  1  0  0  0  0
  3  9  1  0  0  0  0
  3 11  2  0  0  0  0
  4 27  2  0  0  0  0
  5  7  1  0  0  0  0
  5  8  1  0  0  0  0
  5  9  2  0  0  0  0
  6 10  1  0  0  0  0
  6 21  1  0  0  0  0
  7 10  2  0  0  0  0
  7 22  1  0  0  0  0
  8 28  2  0  0  0  0
  9 29  1  0  0  0  0
 10 31  1  0  0  0  0
 11 14  1  0  0  0  0
 11 28  1  0  0  0  0
 12 23  1  0  0  0  0
 12 29  1  0  0  0  0
 13 30  1  0  0  0  0
 13 33  2  0  0  0  0
 13 35  1  0  0  0  0
 14 32  1  0  0  0  0
 14 34  2  0  0  0  0
 15 17  1  0  0  0  0
 15 20  1  0  0  0  0
 16 18  1  0  0  0  0
 16 20  1  0  0  0  0
 17 31  1  0  0  0  0
 18 31  1  0  0  0  0
 19 20  1  0  0  0  0
 19 30  1  0  0  0  0
 20 35  1  0  0  0  0
 24 36  1  0  0  0  0
 25 26  1  0  0  0  0
 25 32  1  0  0  0  0
 26 36  1  0  0  0  0
 27 29  1  0  0  0  0
  1 37  1  0  0  0  0
  2 38  1  0  0  0  0
  3 39  1  0  0  0  0
  4 40  1  0  0  0  0
 15 41  1  0  0  0  0
 15 42  1  0  0  0  0
 16 43  1  0  0  0  0
 16 44  1  0  0  0  0
 17 45  1  0  0  0  0
 17 46  1  0  0  0  0
 18 47  1  0  0  0  0
 18 48  1  0  0  0  0
 19 49  1  0  0  0  0
 19 50  1  0  0  0  0
 21 51  1  0  0  0  0
 21 52  1  0  0  0  0
 21 53  1  0  0  0  0
 22 54  1  0  0  0  0
 22 55  1  0  0  0  0
 22 56  1  0  0  0  0
 23 57  1  0  0  0  0
 23 58  1  0  0  0  0
 23 59  1  0  0  0  0
 24 60  1  0  0  0  0
 24 61  1  0  0  0  0
 24 62  1  0  0  0  0
 25 63  1  0  0  0  0
 25 64  1  0  0  0  0
 26 65  1  0  0  0  0
 26 66  1  0  0  0  0
 30 67  1  0  0  0  0
 32 68  1  0  0  0  0
M  END
> <SMILES>
COCCNC(=O)c1cc(c2c(c(c(cc2n1)C)N1CCC2(CC1)CNC(=O)O2)C)-n1nccc1C

> <FORMATTED_ID>
H3D-006148

> <MOLFORMULA>
C26H32N6O4

> <Exact Mass>
492.25

> <XLogP>
1.81

> <TPSA_NOPS>
110.6

> <s_m_source_file>
ligprep_h3d.sdf

> <i_m_source_file_index>
1002

> <i_lp_mmshare_version>
55123

> <i_f3d_flags>
0

> <s_epik_input>
W0NIM11jMVtjSF1bY0hdbm4xLWMyW2NIXWMoQyg9TylbTkhdW0NIMl1bQ0gyXU9bQ0gzXSluYyhjMjMpW2NIXWMoW0NIM10pYyhjM1tDSDNdKU4oW0NIMl1bQ0gyXTQpW0NIMl1bQ0gyXUM0NVtDSDJdW05IXUMoPU8pTzU=

> <s_epik_cmdline>
J2VwaWtfcHl0aG9uJywgJy1waHQnLCAnMC41JywgJy1waCcsICc3LjUnLCAnLXRuJywgJzgnLCAnLW1hJywgJzUwMCcsICctaW1hZScsICc8aW5maWxlLm1hZT4nLCAnLW9tYWUnLCAnPG91dGZpbGUubWFlPic=

> <r_lp_tautomer_probability>
1

> <r_epik_Ionization_Penalty>
7.30594e-05

> <r_epik_Ionization_Penalty_Charging>
0

> <r_epik_Ionization_Penalty_Neutral>
7.30594e-05

> <r_epik_State_Penalty>
-0

> <r_epik_Charging_Adjusted_Penalty>
0

> <i_epik_Tot_Q>
0

> <i_epik_Tot_abs_Q>
0

> <s_epik_Chemistry_Notes>
This compound has an ester and may undergo hydrolysis at high or low pH.

> <s_lp_Force_Field>
S-OPLS

> <r_lp_Energy>
60.9575

> <b_lp_Chiralities_Consistent>
1

> <s_lp_Variant>
ligprep_h3d.sdf:1002-1

> <ROCS_ShapeQuery>
_7L13

> <ROCS_TanimotoCombo>
0.772 

> <ROCS_ShapeTanimoto>
0.612 

> <ROCS_ColorTanimoto>
0.160 

> <ROCS_RefTversky>
0.763 

> <ROCS_RefColorTversky>
0.317 

> <ROCS_RefTverskyCombo>
1.080 

> <ROCS_FitTversky>
0.755 

> <ROCS_FitColorTversky>
0.244 

> <ROCS_FitTverskyCombo>
1.000 

> <ROCS_ColorScore>
-2.897

> <ROCS_Overlap>
1267.847

> <ROCS_Rank>
677                 

$$$$
ligprep_h3d.sdf:1754_300
  -OEChem-08212117123D

 57 61  0     0  0  0  0  0  0999 V2000
  -22.4770   -3.5023  -33.7905 C   0  0  0  0  0  0  0  0  0  0  0  0
  -22.2358   -3.5730  -32.4185 C   0  0  0  0  0  0  0  0  0  0  0  0
  -19.5812   -4.4794  -30.0444 C   0  0  0  0  0  0  0  0  0  0  0  0
  -21.6183   -4.1435  -34.6835 C   0  0  0  0  0  0  0  0  0  0  0  0
  -24.6522   -3.5863  -23.0288 C   0  0  0  0  0  0  0  0  0  0  0  0
  -25.4456   -5.6293  -24.0454 C   0  0  0  0  0  0  0  0  0  0  0  0
  -19.3407   -4.5496  -28.6716 C   0  0  0  0  0  0  0  0  0  0  0  0
  -23.6231   -3.5186  -23.9679 C   0  0  0  0  0  0  0  0  0  0  0  0
  -24.4165   -5.5616  -24.9846 C   0  0  0  0  0  0  0  0  0  0  0  0
  -21.9492   -4.3092  -29.6168 C   0  0  0  0  0  0  0  0  0  0  0  0
  -20.2773   -4.9258  -32.8324 C   0  0  0  0  0  0  0  0  0  0  0  0
  -20.8855   -4.3580  -30.5164 C   0  0  0  0  0  0  0  0  0  0  0  0
  -21.1360   -4.2847  -31.9394 C   0  0  0  0  0  0  0  0  0  0  0  0
  -21.7011   -4.3803  -28.2403 C   0  0  0  0  0  0  0  0  0  0  0  0
  -20.5185   -4.8551  -34.2044 C   0  0  0  0  0  0  0  0  0  0  0  0
  -25.5635   -4.6417  -23.0675 C   0  0  0  0  0  0  0  0  0  0  0  0
  -20.4000   -4.5009  -27.7572 C   0  0  0  0  0  0  0  0  0  0  0  0
  -23.5053   -4.5062  -24.9458 C   0  0  0  0  0  0  0  0  0  0  0  0
  -22.8163   -4.3583  -27.2743 C   0  0  0  0  0  0  0  0  0  0  0  0
  -21.0828   -4.4984  -25.5156 C   0  0  0  0  0  0  0  0  0  0  0  0
  -19.6146   -5.5280  -35.1447 C   0  0  0  0  0  0  0  0  0  0  0  0
  -20.1316   -7.7687  -34.0460 C   0  0  0  0  0  0  0  0  0  0  0  0
  -18.6259   -7.6246  -36.0027 C   0  0  0  0  0  0  0  0  0  0  0  0
  -21.1437   -8.6963  -34.7076 C   0  0  0  0  0  0  0  0  0  0  0  0
  -19.4602   -8.5375  -36.8934 C   0  0  0  0  0  0  0  0  0  0  0  0
  -26.6637   -4.7140  -22.0633 C   0  0  0  0  0  0  0  0  0  0  0  0
  -20.1113   -4.5493  -26.3909 N   0  0  0  0  0  0  0  0  0  0  0  0
  -22.4427   -4.4365  -25.9161 N   0  0  0  0  0  0  0  0  0  0  0  0
  -19.4636   -6.9136  -35.0364 N   0  0  0  0  0  0  0  0  0  0  0  0
  -20.7360   -4.4505  -24.1829 N   0  0  0  0  0  0  0  0  0  0  0  0
  -23.9641   -4.3316  -27.7125 O   0  0  0  0  0  0  0  0  0  0  0  0
  -19.0583   -4.8066  -35.9712 O   0  0  0  0  0  0  0  0  0  0  0  0
  -26.6566   -3.6822  -21.1681 F   0  0  0  0  0  0  0  0  0  0  0  0
  -27.9120   -4.6957  -22.6176 F   0  0  0  0  0  0  0  0  0  0  0  0
  -26.6140   -5.8516  -21.3108 F   0  0  0  0  0  0  0  0  0  0  0  0
  -20.3421   -9.7976  -35.9173 S   0  0  0  0  0  0  0  0  0  0  0  0
  -23.3333   -2.9481  -34.1635 H   0  0  0  0  0  0  0  0  0  0  0  0
  -22.9143   -3.0678  -31.7351 H   0  0  0  0  0  0  0  0  0  0  0  0
  -18.7395   -4.5189  -30.7317 H   0  0  0  0  0  0  0  0  0  0  0  0
  -21.8160   -4.0811  -35.7504 H   0  0  0  0  0  0  0  0  0  0  0  0
  -24.7351   -2.8136  -22.2690 H   0  0  0  0  0  0  0  0  0  0  0  0
  -26.1507   -6.4556  -24.0825 H   0  0  0  0  0  0  0  0  0  0  0  0
  -18.3164   -4.6391  -28.3171 H   0  0  0  0  0  0  0  0  0  0  0  0
  -22.9188   -2.6914  -23.9285 H   0  0  0  0  0  0  0  0  0  0  0  0
  -24.3333   -6.3373  -25.7417 H   0  0  0  0  0  0  0  0  0  0  0  0
  -22.9672   -4.2192  -29.9895 H   0  0  0  0  0  0  0  0  0  0  0  0
  -19.4178   -5.4813  -32.4619 H   0  0  0  0  0  0  0  0  0  0  0  0
  -20.6431   -7.1644  -33.2920 H   0  0  0  0  0  0  0  0  0  0  0  0
  -19.3574   -8.3388  -33.5176 H   0  0  0  0  0  0  0  0  0  0  0  0
  -17.8684   -8.1909  -35.4475 H   0  0  0  0  0  0  0  0  0  0  0  0
  -18.0898   -6.9060  -36.6322 H   0  0  0  0  0  0  0  0  0  0  0  0
  -21.6246   -9.3215  -33.9488 H   0  0  0  0  0  0  0  0  0  0  0  0
  -21.9309   -8.1242  -35.2103 H   0  0  0  0  0  0  0  0  0  0  0  0
  -20.1888   -7.9603  -37.4733 H   0  0  0  0  0  0  0  0  0  0  0  0
  -18.8099   -9.0551  -37.6058 H   0  0  0  0  0  0  0  0  0  0  0  0
  -19.7723   -4.4570  -23.9535 H   0  0  0  0  0  0  0  0  0  0  0  0
  -21.4658   -4.4118  -23.5141 H   0  0  0  0  0  0  0  0  0  0  0  0
  1  2  1  0  0  0  0
  1  4  2  0  0  0  0
  2 13  2  0  0  0  0
  3  7  1  0  0  0  0
  3 12  2  0  0  0  0
  4 15  1  0  0  0  0
  5  8  1  0  0  0  0
  5 16  2  0  0  0  0
  6  9  2  0  0  0  0
  6 16  1  0  0  0  0
  7 17  2  0  0  0  0
  8 18  2  0  0  0  0
  9 18  1  0  0  0  0
 10 12  1  0  0  0  0
 10 14  2  0  0  0  0
 11 13  1  0  0  0  0
 11 15  2  0  0  0  0
 12 13  1  0  0  0  0
 14 17  1  0  0  0  0
 14 19  1  0  0  0  0
 15 21  1  0  0  0  0
 16 26  1  0  0  0  0
 17 27  1  0  0  0  0
 18 28  1  0  0  0  0
 19 28  1  0  0  0  0
 19 31  2  0  0  0  0
 20 27  2  0  0  0  0
 20 28  1  0  0  0  0
 20 30  1  0  0  0  0
 21 29  1  0  0  0  0
 21 32  2  0  0  0  0
 22 24  1  0  0  0  0
 22 29  1  0  0  0  0
 23 25  1  0  0  0  0
 23 29  1  0  0  0  0
 24 36  1  0  0  0  0
 25 36  1  0  0  0  0
 26 33  1  0  0  0  0
 26 34  1  0  0  0  0
 26 35  1  0  0  0  0
  1 37  1  0  0  0  0
  2 38  1  0  0  0  0
  3 39  1  0  0  0  0
  4 40  1  0  0  0  0
  5 41  1  0  0  0  0
  6 42  1  0  0  0  0
  7 43  1  0  0  0  0
  8 44  1  0  0  0  0
  9 45  1  0  0  0  0
 10 46  1  0  0  0  0
 11 47  1  0  0  0  0
 22 48  1  0  0  0  0
 22 49  1  0  0  0  0
 23 50  1  0  0  0  0
 23 51  1  0  0  0  0
 24 52  1  0  0  0  0
 24 53  1  0  0  0  0
 25 54  1  0  0  0  0
 25 55  1  0  0  0  0
 30 56  1  0  0  0  0
 30 57  1  0  0  0  0
M  END
> <SMILES>
NC1=Nc2ccc(cc2C(=O)N1c1ccc(cc1)C(F)(F)F)-c1cccc(c1)C(=O)N1CCSCC1

> <FORMATTED_ID>
H3D-002802

> <MOLFORMULA>
C26H21F3N4O2S

> <Exact Mass>
510.13

> <XLogP>
5.34

> <TPSA_NOPS>
104.3

> <s_m_source_file>
ligprep_h3d.sdf

> <i_m_source_file_index>
1754

> <i_lp_mmshare_version>
55123

> <i_f3d_flags>
0

> <s_epik_input>
W2NIXTFbY0hdYyhDKEYpKEYpRilbY0hdW2NIXWMxLW4oYyhuMilbTkgyXSljKD1PKWMoYzIzKVtjSF1jKFtjSF1bY0hdMyktYzRbY0hdW2NIXVtjSF1jKFtjSF00KUMoPU8pTjVbQ0gyXVtDSDJdU1tDSDJdW0NIMl01

> <s_epik_cmdline>
J2VwaWtfcHl0aG9uJywgJy1waHQnLCAnMC41JywgJy1waCcsICc3LjUnLCAnLXRuJywgJzgnLCAnLW1hJywgJzUwMCcsICctaW1hZScsICc8aW5maWxlLm1hZT4nLCAnLW9tYWUnLCAnPG91dGZpbGUubWFlPic=

> <r_lp_tautomer_probability>
1

> <r_epik_Ionization_Penalty>
3.61858e-06

> <r_epik_Ionization_Penalty_Charging>
3.91892e-10

> <r_epik_Ionization_Penalty_Neutral>
3.61819e-06

> <r_epik_State_Penalty>
-0

> <r_epik_Charging_Adjusted_Penalty>
3.91892e-10

> <i_epik_Tot_Q>
0

> <i_epik_Tot_abs_Q>
0

> <s_lp_Force_Field>
S-OPLS

> <r_lp_Energy>
53.0896

> <b_lp_Chiralities_Consistent>
1

> <s_lp_Variant>
ligprep_h3d.sdf:1754-1

> <ROCS_ShapeQuery>
_7L13

> <ROCS_TanimotoCombo>
0.734 

> <ROCS_ShapeTanimoto>
0.616 

> <ROCS_ColorTanimoto>
0.118 

> <ROCS_RefTversky>
0.763 

> <ROCS_RefColorTversky>
0.222 

> <ROCS_RefTverskyCombo>
0.985 

> <ROCS_FitTversky>
0.761 

> <ROCS_FitColorTversky>
0.202 

> <ROCS_FitTverskyCombo>
0.963 

> <ROCS_ColorScore>
-2.013

> <ROCS_Overlap>
1267.279

> <ROCS_Rank>
678                 

$$$$
ligprep_h3d.sdf:656_1539
  -OEChem-08212117123D

 68 72  0     0  0  0  0  0  0999 V2000
  -21.0003   -3.9142  -32.4715 C   0  0  0  0  0  0  0  0  0  0  0  0
  -20.3270   -6.1504  -31.8527 C   0  0  0  0  0  0  0  0  0  0  0  0
  -20.5108   -4.1236  -33.7608 C   0  0  0  0  0  0  0  0  0  0  0  0
  -19.8376   -6.3599  -33.1420 C   0  0  0  0  0  0  0  0  0  0  0  0
  -16.7217   -4.7865  -26.7926 C   0  0  0  0  0  0  0  0  0  0  0  0
  -23.2604   -4.1998  -28.7102 C   0  0  0  0  0  0  0  0  0  0  0  0
  -20.7810   -4.4480  -25.3844 C   0  0  0  0  0  0  0  0  0  0  0  0
  -17.1539   -6.1212  -26.6762 C   0  0  0  0  0  0  0  0  0  0  0  0
  -21.0780   -4.5832  -27.7799 C   0  0  0  0  0  0  0  0  0  0  0  0
  -20.9083   -4.9276  -31.5174 C   0  0  0  0  0  0  0  0  0  0  0  0
  -21.4158   -4.7103  -30.1802 C   0  0  0  0  0  0  0  0  0  0  0  0
  -19.9295   -5.3464  -34.0960 C   0  0  0  0  0  0  0  0  0  0  0  0
  -22.7603   -4.4117  -29.9974 C   0  0  0  0  0  0  0  0  0  0  0  0
  -20.5747   -4.7963  -29.0745 C   0  0  0  0  0  0  0  0  0  0  0  0
  -22.4420   -4.2798  -27.5869 C   0  0  0  0  0  0  0  0  0  0  0  0
  -20.2536   -4.6636  -26.6494 C   0  0  0  0  0  0  0  0  0  0  0  0
  -22.1272   -4.1569  -25.2954 C   0  0  0  0  0  0  0  0  0  0  0  0
  -17.8806   -4.0494  -26.7967 C   0  0  0  0  0  0  0  0  0  0  0  0
  -22.7430   -3.9218  -24.0007 C   0  0  0  0  0  0  0  0  0  0  0  0
  -20.0877   -9.2413  -36.3113 C   0  0  0  0  0  0  0  0  0  0  0  0
  -17.8807   -8.6811  -37.1063 C   0  0  0  0  0  0  0  0  0  0  0  0
  -20.4193   -7.7733  -36.0770 C   0  0  0  0  0  0  0  0  0  0  0  0
  -18.1396   -7.1947  -36.8987 C   0  0  0  0  0  0  0  0  0  0  0  0
  -23.7073   -4.3059  -31.1505 C   0  0  0  0  0  0  0  0  0  0  0  0
  -19.1335   -5.1229  -29.3498 C   0  0  0  0  0  0  0  0  0  0  0  0
  -18.0906   -2.5916  -26.8943 C   0  0  0  0  0  0  0  0  0  0  0  0
  -24.8519   -4.0708  -22.6511 C   0  0  0  0  0  0  0  0  0  0  0  0
  -19.4028   -5.5716  -35.4827 C   0  0  0  0  0  0  0  0  0  0  0  0
  -18.4836   -6.2288  -26.6110 N   0  0  0  0  0  0  0  0  0  0  0  0
  -22.9566   -4.0700  -26.3604 N   0  0  0  0  0  0  0  0  0  0  0  0
  -18.8970   -4.9522  -26.6865 N   0  0  0  0  0  0  0  0  0  0  0  0
  -19.1183   -9.4058  -37.3942 N   0  0  0  0  0  0  0  0  0  0  0  0
  -24.0940   -4.2653  -23.8662 N   0  0  0  0  0  0  0  0  0  0  0  0
  -19.1444   -7.0199  -35.7862 N   0  3  0  0  0  0  0  0  0  0  0  0
  -22.0880   -3.4170  -23.0707 O   0  0  0  0  0  0  0  0  0  0  0  0
  -21.4501   -2.9553  -32.2254 H   0  0  0  0  0  0  0  0  0  0  0  0
  -20.2486   -6.9504  -31.1203 H   0  0  0  0  0  0  0  0  0  0  0  0
  -20.5857   -3.3281  -34.4974 H   0  0  0  0  0  0  0  0  0  0  0  0
  -19.3866   -7.3160  -33.3947 H   0  0  0  0  0  0  0  0  0  0  0  0
  -15.7104   -4.4132  -26.8630 H   0  0  0  0  0  0  0  0  0  0  0  0
  -24.3169   -3.9665  -28.5818 H   0  0  0  0  0  0  0  0  0  0  0  0
  -20.1642   -4.5043  -24.4917 H   0  0  0  0  0  0  0  0  0  0  0  0
  -16.5552   -7.0198  -26.6361 H   0  0  0  0  0  0  0  0  0  0  0  0
  -19.7096   -9.7009  -35.3897 H   0  0  0  0  0  0  0  0  0  0  0  0
  -21.0060   -9.7755  -36.5783 H   0  0  0  0  0  0  0  0  0  0  0  0
  -17.1948   -8.8075  -37.9510 H   0  0  0  0  0  0  0  0  0  0  0  0
  -17.3849   -9.1108  -36.2269 H   0  0  0  0  0  0  0  0  0  0  0  0
  -20.8876   -7.3126  -36.9544 H   0  0  0  0  0  0  0  0  0  0  0  0
  -21.0743   -7.6577  -35.2072 H   0  0  0  0  0  0  0  0  0  0  0  0
  -17.2224   -6.6789  -36.5961 H   0  0  0  0  0  0  0  0  0  0  0  0
  -18.5494   -6.7190  -37.7972 H   0  0  0  0  0  0  0  0  0  0  0  0
  -23.7339   -3.2765  -31.5239 H   0  0  0  0  0  0  0  0  0  0  0  0
  -23.4066   -4.9693  -31.9695 H   0  0  0  0  0  0  0  0  0  0  0  0
  -24.7216   -4.5992  -30.8554 H   0  0  0  0  0  0  0  0  0  0  0  0
  -18.9900   -6.2062  -29.3347 H   0  0  0  0  0  0  0  0  0  0  0  0
  -18.8288   -4.7355  -30.3259 H   0  0  0  0  0  0  0  0  0  0  0  0
  -18.4831   -4.6656  -28.5988 H   0  0  0  0  0  0  0  0  0  0  0  0
  -18.1911   -2.2741  -27.9451 H   0  0  0  0  0  0  0  0  0  0  0  0
  -18.9988   -2.2675  -26.3579 H   0  0  0  0  0  0  0  0  0  0  0  0
  -17.2556   -2.0227  -26.4506 H   0  0  0  0  0  0  0  0  0  0  0  0
  -24.8319   -4.9945  -22.0541 H   0  0  0  0  0  0  0  0  0  0  0  0
  -24.4082   -3.2490  -22.0700 H   0  0  0  0  0  0  0  0  0  0  0  0
  -25.8927   -3.8205  -22.9044 H   0  0  0  0  0  0  0  0  0  0  0  0
  -20.1106   -5.2135  -36.2381 H   0  0  0  0  0  0  0  0  0  0  0  0
  -18.4553   -5.0440  -35.6364 H   0  0  0  0  0  0  0  0  0  0  0  0
  -18.9102  -10.3969  -37.5121 H   0  0  0  0  0  0  0  0  0  0  0  0
  -24.5988   -4.6150  -24.6741 H   0  0  0  0  0  0  0  0  0  0  0  0
  -18.7335   -7.4292  -34.9357 H   0  0  0  0  0  0  0  0  0  0  0  0
  1  3  1  0  0  0  0
  1 10  2  0  0  0  0
  2  4  2  0  0  0  0
  2 10  1  0  0  0  0
  3 12  2  0  0  0  0
  4 12  1  0  0  0  0
  5  8  1  0  0  0  0
  5 18  2  0  0  0  0
  6 13  2  0  0  0  0
  6 15  1  0  0  0  0
  7 16  1  0  0  0  0
  7 17  2  0  0  0  0
  8 29  2  0  0  0  0
  9 14  1  0  0  0  0
  9 15  1  0  0  0  0
  9 16  2  0  0  0  0
 10 11  1  0  0  0  0
 11 13  1  0  0  0  0
 11 14  2  0  0  0  0
 12 28  1  0  0  0  0
 13 24  1  0  0  0  0
 14 25  1  0  0  0  0
 15 30  2  0  0  0  0
 16 31  1  0  0  0  0
 17 19  1  0  0  0  0
 17 30  1  0  0  0  0
 18 26  1  0  0  0  0
 18 31  1  0  0  0  0
 19 33  1  0  0  0  0
 19 35  2  0  0  0  0
 20 22  1  0  0  0  0
 20 32  1  0  0  0  0
 21 23  1  0  0  0  0
 21 32  1  0  0  0  0
 22 34  1  0  0  0  0
 23 34  1  0  0  0  0
 27 33  1  0  0  0  0
 28 34  1  0  0  0  0
 29 31  1  0  0  0  0
  1 36  1  0  0  0  0
  2 37  1  0  0  0  0
  3 38  1  0  0  0  0
  4 39  1  0  0  0  0
  5 40  1  0  0  0  0
  6 41  1  0  0  0  0
  7 42  1  0  0  0  0
  8 43  1  0  0  0  0
 20 44  1  0  0  0  0
 20 45  1  0  0  0  0
 21 46  1  0  0  0  0
 21 47  1  0  0  0  0
 22 48  1  0  0  0  0
 22 49  1  0  0  0  0
 23 50  1  0  0  0  0
 23 51  1  0  0  0  0
 24 52  1  0  0  0  0
 24 53  1  0  0  0  0
 24 54  1  0  0  0  0
 25 55  1  0  0  0  0
 25 56  1  0  0  0  0
 25 57  1  0  0  0  0
 26 58  1  0  0  0  0
 26 59  1  0  0  0  0
 26 60  1  0  0  0  0
 27 61  1  0  0  0  0
 27 62  1  0  0  0  0
 27 63  1  0  0  0  0
 28 64  1  0  0  0  0
 28 65  1  0  0  0  0
 32 66  1  0  0  0  0
 33 67  1  0  0  0  0
 34 68  1  0  0  0  0
M  CHG  1  34   1
M  END
> <SMILES>
CNC(=O)c1cc(c2c(c(c(cc2n1)C)-c1ccc(cc1)CN1CCNCC1)C)-n1nccc1C

> <FORMATTED_ID>
H3D-004761

> <MOLFORMULA>
C28H32N6O

> <Exact Mass>
468.26

> <XLogP>
3.53

> <TPSA_NOPS>
75.1

> <s_m_source_file>
ligprep_h3d.sdf

> <i_m_source_file_index>
656

> <i_lp_mmshare_version>
55123

> <i_f3d_flags>
0

> <s_epik_input>
W0NIM11jMVtjSF1bY0hdbm4xLWMyW2NIXWMoQyg9TylbTkhdW0NIM10pbmMoYzIzKVtjSF1jKFtDSDNdKWMoYzNbQ0gzXSktYzRbY0hdW2NIXWMoW2NIXVtjSF00KVtDSDJdTjVbQ0gyXVtDSDJdW05IXVtDSDJdW0NIMl01

> <s_epik_cmdline>
J2VwaWtfcHl0aG9uJywgJy1waHQnLCAnMC41JywgJy1waCcsICc3LjUnLCAnLXRuJywgJzgnLCAnLW1hJywgJzUwMCcsICctaW1hZScsICc8aW5maWxlLm1hZT4nLCAnLW9tYWUnLCAnPG91dGZpbGUubWFlPic=

> <r_epik_Ionization_Penalty>
0.0541802

> <r_epik_Ionization_Penalty_Charging>
0.0475483

> <r_epik_Ionization_Penalty_Neutral>
0.00663194

> <r_epik_State_Penalty>
0.452918

> <r_epik_Charging_Adjusted_Penalty>
0.500467

> <i_epik_Tot_Q>
1

> <i_epik_Tot_abs_Q>
1

> <s_lp_Force_Field>
S-OPLS

> <r_lp_Energy>
66.7285

> <b_lp_Chiralities_Consistent>
1

> <s_lp_Variant>
ligprep_h3d.sdf:656-2

> <ROCS_ShapeQuery>
_7L13

> <ROCS_TanimotoCombo>
0.729 

> <ROCS_ShapeTanimoto>
0.627 

> <ROCS_ColorTanimoto>
0.101 

> <ROCS_RefTversky>
0.763 

> <ROCS_RefColorTversky>
0.220 

> <ROCS_RefTverskyCombo>
0.983 

> <ROCS_FitTversky>
0.779 

> <ROCS_FitColorTversky>
0.158 

> <ROCS_FitTverskyCombo>
0.937 

> <ROCS_ColorScore>
-2.027

> <ROCS_Overlap>
1265.622

> <ROCS_Rank>
679                 

$$$$
ligprep_h3d.sdf:4992_1716
  -OEChem-08212117123D

 60 64  0     1  0  0  0  0  0999 V2000
  -23.2143   -4.3078  -24.0225 C   0  0  0  0  0  0  0  0  0  0  0  0
  -25.2368   -5.0166  -25.1378 C   0  0  0  0  0  0  0  0  0  0  0  0
  -19.7207   -6.5323  -34.9167 C   0  0  0  0  0  0  0  0  0  0  0  0
  -23.9260   -4.1478  -22.8336 C   0  0  0  0  0  0  0  0  0  0  0  0
  -25.9485   -4.8567  -23.9489 C   0  0  0  0  0  0  0  0  0  0  0  0
  -19.6710   -5.3127  -34.2506 C   0  0  0  0  0  0  0  0  0  0  0  0
  -16.7932   -5.3165  -25.2692 C   0  0  0  0  0  0  0  0  0  0  0  0
  -17.4559   -3.0015  -25.0742 C   0  0  0  0  0  0  0  0  0  0  0  0
  -15.7849   -3.9092  -23.5840 C   0  0  0  0  0  0  0  0  0  0  0  0
  -21.5009   -7.1849  -33.4809 C   0  0  0  0  0  0  0  0  0  0  0  0
  -17.5711   -4.2423  -25.7009 C   0  0  0  0  0  0  0  0  0  0  0  0
  -23.8697   -4.7421  -25.1746 C   0  0  0  0  0  0  0  0  0  0  0  0
  -20.6501   -7.4916  -34.5307 C   0  0  0  0  0  0  0  0  0  0  0  0
  -25.2930   -4.4223  -22.7968 C   0  0  0  0  0  0  0  0  0  0  0  0
  -15.9001   -5.1500  -24.2107 C   0  0  0  0  0  0  0  0  0  0  0  0
  -16.5628   -2.8349  -24.0158 C   0  0  0  0  0  0  0  0  0  0  0  0
  -20.5658   -5.1035  -33.2136 C   0  0  0  0  0  0  0  0  0  0  0  0
  -21.5798   -3.7464  -31.3814 C   0  0  0  0  0  0  0  0  0  0  0  0
  -22.0521   -4.1536  -28.9814 C   0  0  0  0  0  0  0  0  0  0  0  0
  -18.7816   -5.5420  -27.5694 C   0  0  0  0  0  0  0  0  0  0  0  0
  -19.1415   -3.4654  -27.5915 C   0  0  0  0  0  0  0  0  0  0  0  0
  -19.8131   -4.6320  -29.7911 C   0  0  0  0  0  0  0  0  0  0  0  0
  -21.3253   -4.9741  -27.9244 C   0  0  1  0  0  0  0  0  0  0  0  0
  -19.8564   -4.6727  -28.2610 C   0  0  0  0  0  0  0  0  0  0  0  0
  -20.5412   -3.7994  -32.4733 C   0  0  0  0  0  0  0  0  0  0  0  0
  -21.7629   -4.6497  -26.5083 C   0  0  0  0  0  0  0  0  0  0  0  0
  -21.4826   -6.0113  -32.8101 N   0  0  0  0  0  0  0  0  0  0  0  0
  -18.4682   -4.4091  -26.7649 N   0  0  0  0  0  0  0  0  0  0  0  0
  -21.1547   -4.1597  -30.1291 N   0  0  0  0  0  0  0  0  0  0  0  0
  -23.1570   -4.9023  -26.3652 N   0  0  0  0  0  0  0  0  0  0  0  0
  -22.7204   -3.3493  -31.6260 O   0  0  0  0  0  0  0  0  0  0  0  0
  -20.7206   -8.6896  -35.1619 O   0  0  0  0  0  0  0  0  0  0  0  0
  -25.9765   -4.2687  -21.6550 F   0  0  0  0  0  0  0  0  0  0  0  0
  -15.1519   -6.1814  -23.7976 F   0  0  0  0  0  0  0  0  0  0  0  0
  -16.4508   -1.6428  -23.4153 F   0  0  0  0  0  0  0  0  0  0  0  0
  -22.1492   -4.0913  -24.0398 H   0  0  0  0  0  0  0  0  0  0  0  0
  -25.7576   -5.3554  -26.0298 H   0  0  0  0  0  0  0  0  0  0  0  0
  -19.0347   -6.7293  -35.7359 H   0  0  0  0  0  0  0  0  0  0  0  0
  -23.4160   -3.8099  -21.9363 H   0  0  0  0  0  0  0  0  0  0  0  0
  -27.0129   -5.0700  -23.9197 H   0  0  0  0  0  0  0  0  0  0  0  0
  -18.9510   -4.5556  -34.5418 H   0  0  0  0  0  0  0  0  0  0  0  0
  -16.8743   -6.2873  -25.7509 H   0  0  0  0  0  0  0  0  0  0  0  0
  -18.0566   -2.1575  -25.4033 H   0  0  0  0  0  0  0  0  0  0  0  0
  -15.0883   -3.7798  -22.7609 H   0  0  0  0  0  0  0  0  0  0  0  0
  -22.2464   -7.8953  -33.1372 H   0  0  0  0  0  0  0  0  0  0  0  0
  -22.9738   -4.6510  -29.2980 H   0  0  0  0  0  0  0  0  0  0  0  0
  -22.2934   -3.1339  -28.6746 H   0  0  0  0  0  0  0  0  0  0  0  0
  -19.1557   -6.3827  -26.9700 H   0  0  0  0  0  0  0  0  0  0  0  0
  -17.9382   -5.8788  -28.1829 H   0  0  0  0  0  0  0  0  0  0  0  0
  -18.4665   -2.8901  -28.2274 H   0  0  0  0  0  0  0  0  0  0  0  0
  -19.7881   -2.7971  -27.0161 H   0  0  0  0  0  0  0  0  0  0  0  0
  -19.0948   -3.8921  -30.1597 H   0  0  0  0  0  0  0  0  0  0  0  0
  -19.6100   -5.5994  -30.2593 H   0  0  0  0  0  0  0  0  0  0  0  0
  -21.5503   -6.0724  -28.1066 H   0  0  0  0  0  0  0  0  0  0  0  0
  -19.5586   -3.6385  -32.0264 H   0  0  0  0  0  0  0  0  0  0  0  0
  -20.7141   -2.9644  -33.1539 H   0  0  0  0  0  0  0  0  0  0  0  0
  -21.1867   -5.2863  -25.8391 H   0  0  0  0  0  0  0  0  0  0  0  0
  -21.5436   -3.5975  -26.3363 H   0  0  0  0  0  0  0  0  0  0  0  0
  -23.6903   -5.2221  -27.1780 H   0  0  0  0  0  0  0  0  0  0  0  0
  -20.0568   -8.7419  -35.8703 H   0  0  0  0  0  0  0  0  0  0  0  0
  1  4  1  0  0  0  0
  1 12  2  0  0  0  0
  2  5  2  0  0  0  0
  2 12  1  0  0  0  0
  3  6  1  0  0  0  0
  3 13  2  0  0  0  0
  4 14  2  0  0  0  0
  5 14  1  0  0  0  0
  6 17  2  0  0  0  0
  7 11  2  0  0  0  0
  7 15  1  0  0  0  0
  8 11  1  0  0  0  0
  8 16  2  0  0  0  0
  9 15  2  0  0  0  0
  9 16  1  0  0  0  0
 10 13  1  0  0  0  0
 10 27  2  0  0  0  0
 11 28  1  0  0  0  0
 12 30  1  0  0  0  0
 13 32  1  0  0  0  0
 14 33  1  0  0  0  0
 15 34  1  0  0  0  0
 16 35  1  0  0  0  0
 17 25  1  0  0  0  0
 17 27  1  0  0  0  0
 18 25  1  0  0  0  0
 18 29  1  0  0  0  0
 18 31  2  0  0  0  0
 19 23  1  0  0  0  0
 19 29  1  0  0  0  0
 20 24  1  0  0  0  0
 20 28  1  0  0  0  0
 21 24  1  0  0  0  0
 21 28  1  0  0  0  0
 22 24  1  0  0  0  0
 22 29  1  0  0  0  0
 23 24  1  0  0  0  0
 23 26  1  0  0  0  0
 26 30  1  0  0  0  0
  1 36  1  0  0  0  0
  2 37  1  0  0  0  0
  3 38  1  0  0  0  0
  4 39  1  0  0  0  0
  5 40  1  0  0  0  0
  6 41  1  0  0  0  0
  7 42  1  0  0  0  0
  8 43  1  0  0  0  0
  9 44  1  0  0  0  0
 10 45  1  0  0  0  0
 19 46  1  0  0  0  0
 19 47  1  0  0  0  0
 20 48  1  0  0  0  0
 20 49  1  0  0  0  0
 21 50  1  0  0  0  0
 21 51  1  0  0  0  0
 22 52  1  0  0  0  0
 22 53  1  0  0  0  0
 23 54  1  0  0  0  0
 25 55  1  0  0  0  0
 25 56  1  0  0  0  0
 26 57  1  0  0  0  0
 26 58  1  0  0  0  0
 30 59  1  0  0  0  0
 32 60  1  0  0  0  0
M  END
> <SMILES>
Oc1ccc(nc1)CC(=O)N1CC(CNc2ccc(cc2)F)C2(C1)CN(C2)c1cc(cc(c1)F)F

> <FORMATTED_ID>
H3D-008765

> <MOLFORMULA>
C26H25F3N4O2

> <Exact Mass>
482.19

> <XLogP>
2.73

> <TPSA_NOPS>
68.7

> <s_m_source_file>
ligprep_h3d.sdf

> <i_m_source_file_index>
4992

> <i_lp_mmshare_version>
55123

> <i_f3d_flags>
0

> <s_epik_input>
W09IXWMxW2NIXVtjSF1jKG5bY0hdMSlbQ0gyXUMoPU8pTihbQ0gyXTIpW0NIMl1bQ0BIXShbQ0gyXVtOSF1jM1tjSF1bY0hdYyhGKVtjSF1bY0hdMylDMjRbQ0gyXU4oW0NIMl00KWM1W2NIXWMoRilbY0hdYyhGKVtjSF01

> <s_epik_cmdline>
J2VwaWtfcHl0aG9uJywgJy1waHQnLCAnMC41JywgJy1waCcsICc3LjUnLCAnLXRuJywgJzgnLCAnLW1hJywgJzUwMCcsICctaW1hZScsICc8aW5maWxlLm1hZT4nLCAnLW9tYWUnLCAnPG91dGZpbGUubWFlPic=

> <r_lp_tautomer_probability>
0.43658

> <r_epik_Ionization_Penalty>
0.064869

> <r_epik_Ionization_Penalty_Charging>
0

> <r_epik_Ionization_Penalty_Neutral>
0.064869

> <r_epik_State_Penalty>
0.544966

> <r_epik_Charging_Adjusted_Penalty>
0.544966

> <i_epik_Tot_Q>
0

> <i_epik_Tot_abs_Q>
0

> <s_lp_Force_Field>
S-OPLS

> <r_lp_Energy>
42.1301

> <b_lp_Chiralities_Consistent>
1

> <s_lp_Variant>
ligprep_h3d.sdf:4992-2

> <ROCS_ShapeQuery>
_7L13

> <ROCS_TanimotoCombo>
0.688 

> <ROCS_ShapeTanimoto>
0.632 

> <ROCS_ColorTanimoto>
0.056 

> <ROCS_RefTversky>
0.763 

> <ROCS_RefColorTversky>
0.112 

> <ROCS_RefTverskyCombo>
0.875 

> <ROCS_FitTversky>
0.786 

> <ROCS_FitColorTversky>
0.102 

> <ROCS_FitTverskyCombo>
0.887 

> <ROCS_ColorScore>
-1.012

> <ROCS_Overlap>
1264.989

> <ROCS_Rank>
680                 

$$$$
ligprep_h3d.sdf:1262_1101
  -OEChem-08212117123D

 60 63  0     0  0  0  0  0  0999 V2000
  -19.1540   -5.6835  -35.3902 C   0  0  0  0  0  0  0  0  0  0  0  0
  -19.6069   -4.2167  -33.5190 C   0  0  0  0  0  0  0  0  0  0  0  0
  -20.1216   -3.9710  -32.2462 C   0  0  0  0  0  0  0  0  0  0  0  0
  -16.7209   -5.2379  -26.6546 C   0  0  0  0  0  0  0  0  0  0  0  0
  -20.8273   -6.2761  -32.0865 C   0  0  0  0  0  0  0  0  0  0  0  0
  -23.1121   -4.0783  -28.7961 C   0  0  0  0  0  0  0  0  0  0  0  0
  -20.7828   -4.5516  -25.3872 C   0  0  0  0  0  0  0  0  0  0  0  0
  -17.2714   -6.5303  -26.5616 C   0  0  0  0  0  0  0  0  0  0  0  0
  -19.7025   -5.4922  -34.0758 C   0  0  0  0  0  0  0  0  0  0  0  0
  -21.0055   -4.6531  -27.7924 C   0  0  0  0  0  0  0  0  0  0  0  0
  -20.7318   -5.0007  -31.5299 C   0  0  0  0  0  0  0  0  0  0  0  0
  -21.2679   -4.7429  -30.2037 C   0  0  0  0  0  0  0  0  0  0  0  0
  -22.5870   -4.3289  -30.0663 C   0  0  0  0  0  0  0  0  0  0  0  0
  -20.4771   -4.9052  -29.0699 C   0  0  0  0  0  0  0  0  0  0  0  0
  -22.3439   -4.2327  -27.6453 C   0  0  0  0  0  0  0  0  0  0  0  0
  -20.2317   -4.8084  -26.6343 C   0  0  0  0  0  0  0  0  0  0  0  0
  -20.3127   -6.5218  -33.3595 C   0  0  0  0  0  0  0  0  0  0  0  0
  -22.1008   -4.1447  -25.3435 C   0  0  0  0  0  0  0  0  0  0  0  0
  -17.8106   -4.4027  -26.6947 C   0  0  0  0  0  0  0  0  0  0  0  0
  -22.7394   -3.8609  -24.0698 C   0  0  0  0  0  0  0  0  0  0  0  0
  -23.4799   -4.1376  -31.2511 C   0  0  0  0  0  0  0  0  0  0  0  0
  -19.0609   -5.3552  -29.2966 C   0  0  0  0  0  0  0  0  0  0  0  0
  -17.8895   -2.9318  -26.7906 C   0  0  0  0  0  0  0  0  0  0  0  0
  -28.3128   -6.1491  -23.0134 C   0  0  0  0  0  0  0  0  0  0  0  0
  -24.8996   -3.8298  -22.7957 C   0  0  0  0  0  0  0  0  0  0  0  0
  -26.3659   -4.1649  -22.9906 C   0  0  0  0  0  0  0  0  0  0  0  0
  -18.7111   -5.8380  -36.4517 N   0  0  0  0  0  0  0  0  0  0  0  0
  -18.6069   -6.5218  -26.5436 N   0  0  0  0  0  0  0  0  0  0  0  0
  -22.8814   -3.9826  -26.4364 N   0  0  0  0  0  0  0  0  0  0  0  0
  -18.9048   -5.2139  -26.6257 N   0  0  0  0  0  0  0  0  0  0  0  0
  -24.1190   -4.0859  -23.9847 N   0  0  0  0  0  0  0  0  0  0  0  0
  -20.4162   -7.7066  -33.8446 O   0  5  0  0  0  0  0  0  0  0  0  0
  -22.0762   -3.4179  -23.1143 O   0  0  0  0  0  0  0  0  0  0  0  0
  -26.5060   -5.9530  -24.8921 O   0  0  0  0  0  0  0  0  0  0  0  0
  -25.7901   -6.6819  -22.5839 O   0  0  0  0  0  0  0  0  0  0  0  0
  -26.6139   -5.8525  -23.4467 S   0  0  0  0  0  0  0  0  0  0  0  0
  -19.1344   -3.4016  -34.0625 H   0  0  0  0  0  0  0  0  0  0  0  0
  -20.0395   -2.9715  -31.8257 H   0  0  0  0  0  0  0  0  0  0  0  0
  -15.6793   -4.9539  -26.6874 H   0  0  0  0  0  0  0  0  0  0  0  0
  -21.3071   -7.0721  -31.5160 H   0  0  0  0  0  0  0  0  0  0  0  0
  -24.1481   -3.7543  -28.7033 H   0  0  0  0  0  0  0  0  0  0  0  0
  -20.2052   -4.6642  -24.4738 H   0  0  0  0  0  0  0  0  0  0  0  0
  -16.7548   -7.4777  -26.5061 H   0  0  0  0  0  0  0  0  0  0  0  0
  -23.4037   -3.1086  -31.6189 H   0  0  0  0  0  0  0  0  0  0  0  0
  -23.2091   -4.8222  -32.0632 H   0  0  0  0  0  0  0  0  0  0  0  0
  -24.5256   -4.3424  -30.9935 H   0  0  0  0  0  0  0  0  0  0  0  0
  -19.0127   -6.4469  -29.2831 H   0  0  0  0  0  0  0  0  0  0  0  0
  -18.6894   -4.9928  -30.2591 H   0  0  0  0  0  0  0  0  0  0  0  0
  -18.4003   -4.9585  -28.5205 H   0  0  0  0  0  0  0  0  0  0  0  0
  -17.9248   -2.6036  -27.8423 H   0  0  0  0  0  0  0  0  0  0  0  0
  -18.7845   -2.5316  -26.2844 H   0  0  0  0  0  0  0  0  0  0  0  0
  -17.0244   -2.4392  -26.3146 H   0  0  0  0  0  0  0  0  0  0  0  0
  -28.5567   -7.1827  -23.2641 H   0  0  0  0  0  0  0  0  0  0  0  0
  -28.4299   -5.9776  -21.9423 H   0  0  0  0  0  0  0  0  0  0  0  0
  -28.9385   -5.4597  -23.5820 H   0  0  0  0  0  0  0  0  0  0  0  0
  -24.7599   -2.7776  -22.5291 H   0  0  0  0  0  0  0  0  0  0  0  0
  -24.4755   -4.4471  -21.9979 H   0  0  0  0  0  0  0  0  0  0  0  0
  -26.7894   -3.5638  -23.8008 H   0  0  0  0  0  0  0  0  0  0  0  0
  -26.9472   -3.9903  -22.0802 H   0  0  0  0  0  0  0  0  0  0  0  0
  -24.6234   -4.3878  -24.8119 H   0  0  0  0  0  0  0  0  0  0  0  0
  1  9  1  0  0  0  0
  1 27  3  0  0  0  0
  2  3  1  0  0  0  0
  2  9  2  0  0  0  0
  3 11  2  0  0  0  0
  4  8  1  0  0  0  0
  4 19  2  0  0  0  0
  5 11  1  0  0  0  0
  5 17  2  0  0  0  0
  6 13  2  0  0  0  0
  6 15  1  0  0  0  0
  7 16  1  0  0  0  0
  7 18  2  0  0  0  0
  8 28  2  0  0  0  0
  9 17  1  0  0  0  0
 10 14  1  0  0  0  0
 10 15  1  0  0  0  0
 10 16  2  0  0  0  0
 11 12  1  0  0  0  0
 12 13  1  0  0  0  0
 12 14  2  0  0  0  0
 13 21  1  0  0  0  0
 14 22  1  0  0  0  0
 15 29  2  0  0  0  0
 16 30  1  0  0  0  0
 17 32  1  0  0  0  0
 18 20  1  0  0  0  0
 18 29  1  0  0  0  0
 19 23  1  0  0  0  0
 19 30  1  0  0  0  0
 20 31  1  0  0  0  0
 20 33  2  0  0  0  0
 24 36  1  0  0  0  0
 25 26  1  0  0  0  0
 25 31  1  0  0  0  0
 26 36  1  0  0  0  0
 28 30  1  0  0  0  0
 34 36  2  0  0  0  0
 35 36  2  0  0  0  0
  2 37  1  0  0  0  0
  3 38  1  0  0  0  0
  4 39  1  0  0  0  0
  5 40  1  0  0  0  0
  6 41  1  0  0  0  0
  7 42  1  0  0  0  0
  8 43  1  0  0  0  0
 21 44  1  0  0  0  0
 21 45  1  0  0  0  0
 21 46  1  0  0  0  0
 22 47  1  0  0  0  0
 22 48  1  0  0  0  0
 22 49  1  0  0  0  0
 23 50  1  0  0  0  0
 23 51  1  0  0  0  0
 23 52  1  0  0  0  0
 24 53  1  0  0  0  0
 24 54  1  0  0  0  0
 24 55  1  0  0  0  0
 25 56  1  0  0  0  0
 25 57  1  0  0  0  0
 26 58  1  0  0  0  0
 26 59  1  0  0  0  0
 31 60  1  0  0  0  0
M  CHG  1  32  -1
M  END
> <SMILES>
Cc1cc2nc(cc(c2c(c1-c1ccc(c(c1)O)C#N)C)-n1nccc1C)C(=O)NCCS(=O)(=O)C

> <FORMATTED_ID>
H3D-008544

> <MOLFORMULA>
C26H25N5O4S

> <Exact Mass>
503.16

> <XLogP>
2.79

> <TPSA_NOPS>
146.4

> <s_m_source_file>
ligprep_h3d.sdf

> <i_m_source_file_index>
1262

> <i_lp_mmshare_version>
55123

> <i_f3d_flags>
0

> <s_epik_input>
W2NIXTFjKFtPSF0pYyhDI04pW2NIXVtjSF1jMS1jKGMoW0NIM10pW2NIXTIpYyhbQ0gzXSljKGMyMyljKC1uNG5bY0hdW2NIXWM0W0NIM10pW2NIXWMobjMpQyg9TylbTkhdW0NIMl1bQ0gyXVMoPU8pKD1PKVtDSDNd

> <s_epik_cmdline>
J2VwaWtfcHl0aG9uJywgJy1waHQnLCAnMC41JywgJy1waCcsICc3LjUnLCAnLXRuJywgJzgnLCAnLW1hJywgJzUwMCcsICctaW1hZScsICc8aW5maWxlLm1hZT4nLCAnLW9tYWUnLCAnPG91dGZpbGUubWFlPic=

> <r_lp_tautomer_probability>
1

> <r_epik_Ionization_Penalty>
0.147611

> <r_epik_Ionization_Penalty_Charging>
0.147592

> <r_epik_Ionization_Penalty_Neutral>
1.8908e-05

> <r_epik_State_Penalty>
0.136885

> <r_epik_Charging_Adjusted_Penalty>
0.284477

> <i_epik_Tot_Q>
-1

> <i_epik_Tot_abs_Q>
1

> <s_lp_Force_Field>
S-OPLS

> <r_lp_Energy>
43.1922

> <b_lp_Chiralities_Consistent>
1

> <s_lp_Variant>
ligprep_h3d.sdf:1262-1

> <ROCS_ShapeQuery>
_7L13

> <ROCS_TanimotoCombo>
0.721 

> <ROCS_ShapeTanimoto>
0.620 

> <ROCS_ColorTanimoto>
0.101 

> <ROCS_RefTversky>
0.763 

> <ROCS_RefColorTversky>
0.220 

> <ROCS_RefTverskyCombo>
0.983 

> <ROCS_FitTversky>
0.768 

> <ROCS_FitColorTversky>
0.158 

> <ROCS_FitTverskyCombo>
0.926 

> <ROCS_ColorScore>
-2.026

> <ROCS_Overlap>
1266.533

> <ROCS_Rank>
681                 

$$$$
ligprep_h3d.sdf:4302_213
  -OEChem-08212117123D

 69 74  0     0  0  0  0  0  0999 V2000
  -23.1559   -8.2148  -32.8781 C   0  0  0  0  0  0  0  0  0  0  0  0
  -18.2811   -4.8611  -25.3046 C   0  0  0  0  0  0  0  0  0  0  0  0
  -23.3750   -6.8761  -32.5532 C   0  0  0  0  0  0  0  0  0  0  0  0
  -19.5575   -4.8172  -24.7438 C   0  0  0  0  0  0  0  0  0  0  0  0
  -21.9655   -8.5965  -33.4969 C   0  0  0  0  0  0  0  0  0  0  0  0
  -18.1220   -4.7500  -26.6859 C   0  0  0  0  0  0  0  0  0  0  0  0
  -22.2384   -1.0104  -32.9897 C   0  0  0  0  0  0  0  0  0  0  0  0
  -24.4464   -5.4506  -22.5153 C   0  0  0  0  0  0  0  0  0  0  0  0
  -21.2135   -6.3007  -33.4663 C   0  0  0  0  0  0  0  0  0  0  0  0
  -20.5157   -4.5514  -26.9457 C   0  0  0  0  0  0  0  0  0  0  0  0
  -22.8403   -0.0972  -32.1434 C   0  0  0  0  0  0  0  0  0  0  0  0
  -25.7424   -4.9752  -22.5976 C   0  0  0  0  0  0  0  0  0  0  0  0
  -22.4039   -5.9191  -32.8474 C   0  0  0  0  0  0  0  0  0  0  0  0
  -20.6748   -4.6624  -25.5644 C   0  0  0  0  0  0  0  0  0  0  0  0
  -23.2763   -2.7157  -31.5876 C   0  0  0  0  0  0  0  0  0  0  0  0
  -24.0573   -4.2128  -24.5812 C   0  0  0  0  0  0  0  0  0  0  0  0
  -22.4886   -2.3342  -32.6677 C   0  0  0  0  0  0  0  0  0  0  0  0
  -23.6224   -5.0359  -23.5487 C   0  0  0  0  0  0  0  0  0  0  0  0
  -20.9943   -7.6394  -33.7911 C   0  0  0  0  0  0  0  0  0  0  0  0
  -19.2393   -4.5952  -27.5065 C   0  0  0  0  0  0  0  0  0  0  0  0
  -23.8592   -1.7558  -30.7666 C   0  0  0  0  0  0  0  0  0  0  0  0
  -25.3728   -3.7621  -24.6166 C   0  0  0  0  0  0  0  0  0  0  0  0
  -22.6301   -4.5346  -32.5110 C   0  0  0  0  0  0  0  0  0  0  0  0
  -21.9950   -4.6164  -24.9846 C   0  0  0  0  0  0  0  0  0  0  0  0
  -26.0184   -1.5697  -27.6465 C   0  0  0  0  0  0  0  0  0  0  0  0
  -25.2495   -1.0009  -28.8372 C   0  0  0  0  0  0  0  0  0  0  0  0
  -25.1678   -2.4364  -26.7205 C   0  0  0  0  0  0  0  0  0  0  0  0
  -19.1818   -7.0722  -35.2421 C   0  0  0  0  0  0  0  0  0  0  0  0
  -20.2483   -4.3303  -29.6569 C   0  0  0  0  0  0  0  0  0  0  0  0
  -23.3517   -4.0894  -31.5074 N   0  0  0  0  0  0  0  0  0  0  0  0
  -23.0293   -3.9637  -25.4645 N   0  0  0  0  0  0  0  0  0  0  0  0
  -22.0885   -3.5139  -33.2401 N   0  0  0  0  0  0  0  0  0  0  0  0
  -22.3029   -5.2789  -23.8301 N   0  0  0  0  0  0  0  0  0  0  0  0
  -23.5939   -0.4917  -31.1106 N   0  3  0  0  0  0  0  0  0  0  0  0
  -26.1349   -4.1840  -23.6027 N   0  3  0  0  0  0  0  0  0  0  0  0
  -24.6672   -2.0263  -29.6586 N   0  0  0  0  0  0  0  0  0  0  0  0
  -25.9111   -2.9382  -25.5973 N   0  0  0  0  0  0  0  0  0  0  0  0
  -19.8330   -8.0123  -34.3950 O   0  0  0  0  0  0  0  0  0  0  0  0
  -19.0835   -4.4870  -28.8542 O   0  0  0  0  0  0  0  0  0  0  0  0
  -20.0741   -6.2425  -35.8233 F   0  0  0  0  0  0  0  0  0  0  0  0
  -18.5368   -7.7434  -36.2232 F   0  0  0  0  0  0  0  0  0  0  0  0
  -18.2657   -6.3546  -34.5578 F   0  0  0  0  0  0  0  0  0  0  0  0
  -20.9252   -3.2128  -29.3175 F   0  0  0  0  0  0  0  0  0  0  0  0
  -21.0640   -5.3895  -29.4524 F   0  0  0  0  0  0  0  0  0  0  0  0
  -19.9332   -4.2955  -30.9690 F   0  0  0  0  0  0  0  0  0  0  0  0
  -23.9118   -8.9603  -32.6493 H   0  0  0  0  0  0  0  0  0  0  0  0
  -17.4109   -4.9817  -24.6661 H   0  0  0  0  0  0  0  0  0  0  0  0
  -24.3081   -6.5939  -32.0713 H   0  0  0  0  0  0  0  0  0  0  0  0
  -19.6656   -4.9054  -23.6654 H   0  0  0  0  0  0  0  0  0  0  0  0
  -21.8008   -9.6409  -33.7477 H   0  0  0  0  0  0  0  0  0  0  0  0
  -17.1250   -4.7852  -27.1168 H   0  0  0  0  0  0  0  0  0  0  0  0
  -21.6254   -0.7120  -33.8296 H   0  0  0  0  0  0  0  0  0  0  0  0
  -24.1096   -6.0913  -21.7114 H   0  0  0  0  0  0  0  0  0  0  0  0
  -20.4496   -5.5619  -33.7005 H   0  0  0  0  0  0  0  0  0  0  0  0
  -21.3808   -4.4309  -27.5948 H   0  0  0  0  0  0  0  0  0  0  0  0
  -22.7394    0.9736  -32.2639 H   0  0  0  0  0  0  0  0  0  0  0  0
  -26.5043   -5.2109  -21.8660 H   0  0  0  0  0  0  0  0  0  0  0  0
  -26.8607   -2.1619  -28.0248 H   0  0  0  0  0  0  0  0  0  0  0  0
  -26.4422   -0.7444  -27.0612 H   0  0  0  0  0  0  0  0  0  0  0  0
  -25.8936   -0.3873  -29.4744 H   0  0  0  0  0  0  0  0  0  0  0  0
  -24.4265   -0.3721  -28.4831 H   0  0  0  0  0  0  0  0  0  0  0  0
  -24.3396   -1.8466  -26.3151 H   0  0  0  0  0  0  0  0  0  0  0  0
  -24.7439   -3.2942  -27.2514 H   0  0  0  0  0  0  0  0  0  0  0  0
  -21.4981   -3.6065  -34.0564 H   0  0  0  0  0  0  0  0  0  0  0  0
  -21.6741   -5.8476  -23.2781 H   0  0  0  0  0  0  0  0  0  0  0  0
  -24.0058    0.2387  -30.5293 H   0  0  0  0  0  0  0  0  0  0  0  0
  -27.1064   -3.8721  -23.5974 H   0  0  0  0  0  0  0  0  0  0  0  0
  -24.8424   -2.9934  -29.4332 H   0  0  0  0  0  0  0  0  0  0  0  0
  -26.8900   -2.6770  -25.5092 H   0  0  0  0  0  0  0  0  0  0  0  0
  1  3  2  0  0  0  0
  1  5  1  0  0  0  0
  2  4  1  0  0  0  0
  2  6  2  0  0  0  0
  3 13  1  0  0  0  0
  4 14  2  0  0  0  0
  5 19  2  0  0  0  0
  6 20  1  0  0  0  0
  7 11  1  0  0  0  0
  7 17  2  0  0  0  0
  8 12  2  0  0  0  0
  8 18  1  0  0  0  0
  9 13  2  0  0  0  0
  9 19  1  0  0  0  0
 10 14  1  0  0  0  0
 10 20  2  0  0  0  0
 11 34  2  0  0  0  0
 12 35  1  0  0  0  0
 13 23  1  0  0  0  0
 14 24  1  0  0  0  0
 15 17  1  0  0  0  0
 15 21  2  0  0  0  0
 15 30  1  0  0  0  0
 16 18  2  0  0  0  0
 16 22  1  0  0  0  0
 16 31  1  0  0  0  0
 17 32  1  0  0  0  0
 18 33  1  0  0  0  0
 19 38  1  0  0  0  0
 20 39  1  0  0  0  0
 21 34  1  0  0  0  0
 21 36  1  0  0  0  0
 22 35  2  0  0  0  0
 22 37  1  0  0  0  0
 23 30  2  0  0  0  0
 23 32  1  0  0  0  0
 24 31  2  0  0  0  0
 24 33  1  0  0  0  0
 25 26  1  0  0  0  0
 25 27  1  0  0  0  0
 26 36  1  0  0  0  0
 27 37  1  0  0  0  0
 28 38  1  0  0  0  0
 28 40  1  0  0  0  0
 28 41  1  0  0  0  0
 28 42  1  0  0  0  0
 29 39  1  0  0  0  0
 29 43  1  0  0  0  0
 29 44  1  0  0  0  0
 29 45  1  0  0  0  0
  1 46  1  0  0  0  0
  2 47  1  0  0  0  0
  3 48  1  0  0  0  0
  4 49  1  0  0  0  0
  5 50  1  0  0  0  0
  6 51  1  0  0  0  0
  7 52  1  0  0  0  0
  8 53  1  0  0  0  0
  9 54  1  0  0  0  0
 10 55  1  0  0  0  0
 11 56  1  0  0  0  0
 12 57  1  0  0  0  0
 25 58  1  0  0  0  0
 25 59  1  0  0  0  0
 26 60  1  0  0  0  0
 26 61  1  0  0  0  0
 27 62  1  0  0  0  0
 27 63  1  0  0  0  0
 32 64  1  0  0  0  0
 33 65  1  0  0  0  0
 34 66  1  0  0  0  0
 35 67  1  0  0  0  0
 36 68  1  0  0  0  0
 37 69  1  0  0  0  0
M  CHG  2  34   1  35   1
M  END
> <SMILES>
FC(F)(F)Oc1cccc(c1)-c1nc2c(nccc2[nH]1)NCCCNc1nccc2[nH]c(nc12)-c1cccc(c1)OC(F)(F)F

> <FORMATTED_ID>
H3D-003565

> <MOLFORMULA>
C29H22F6N8O2

> <Exact Mass>
628.18

> <XLogP>
8.66

> <TPSA_NOPS>
125.7

> <s_m_source_file>
ligprep_h3d.sdf

> <i_m_source_file_index>
4302

> <i_lp_mmshare_version>
55123

> <i_f3d_flags>
0

> <s_epik_input>
RkMoRikoRilPYzFbY0hdW2NIXVtjSF1jKFtjSF0xKS1jKG4yKVtuSF1jKGMyMylbY0hdW2NIXW5jM1tOSF1bQ0gyXVtDSDJdW0NIMl1bTkhdYyhuW2NIXVtjSF00KWMoYzQ1KW5jKFtuSF01KS1jNltjSF1bY0hdW2NIXWMoW2NIXTYpT0MoRikoRilG

> <s_epik_cmdline>
J2VwaWtfcHl0aG9uJywgJy1waHQnLCAnMC41JywgJy1waCcsICc3LjUnLCAnLXRuJywgJzgnLCAnLW1hJywgJzUwMCcsICctaW1hZScsICc8aW5maWxlLm1hZT4nLCAnLW9tYWUnLCAnPG91dGZpbGUubWFlPic=

> <r_lp_tautomer_probability>
1

> <r_epik_Ionization_Penalty>
0.497118

> <r_epik_Ionization_Penalty_Charging>
3.29111e-05

> <r_epik_Ionization_Penalty_Neutral>
0.497086

> <r_epik_State_Penalty>
0.598042

> <r_epik_Charging_Adjusted_Penalty>
0.598075

> <i_epik_Tot_Q>
2

> <i_epik_Tot_abs_Q>
2

> <s_lp_Force_Field>
S-OPLS

> <r_lp_Energy>
57.6651

> <b_lp_Chiralities_Consistent>
1

> <s_lp_Variant>
ligprep_h3d.sdf:4302-2

> <ROCS_ShapeQuery>
_7L13

> <ROCS_TanimotoCombo>
0.588 

> <ROCS_ShapeTanimoto>
0.510 

> <ROCS_ColorTanimoto>
0.078 

> <ROCS_RefTversky>
0.763 

> <ROCS_RefColorTversky>
0.208 

> <ROCS_RefTverskyCombo>
0.971 

> <ROCS_FitTversky>
0.606 

> <ROCS_FitColorTversky>
0.112 

> <ROCS_FitTverskyCombo>
0.717 

> <ROCS_ColorScore>
-1.965

> <ROCS_Overlap>
1285.243

> <ROCS_Rank>
682                 

$$$$
ligprep_h3d.sdf:1013_1811
  -OEChem-08212117123D

 73 77  0     1  0  0  0  0  0999 V2000
  -20.3455   -3.8840  -32.2835 C   0  0  0  0  0  0  0  0  0  0  0  0
  -20.6191   -6.2721  -32.0402 C   0  0  0  0  0  0  0  0  0  0  0  0
  -19.8287   -4.0738  -33.5651 C   0  0  0  0  0  0  0  0  0  0  0  0
  -20.1024   -6.4619  -33.3218 C   0  0  0  0  0  0  0  0  0  0  0  0
  -16.7610   -5.5650  -26.6523 C   0  0  0  0  0  0  0  0  0  0  0  0
  -23.1721   -4.4213  -28.7434 C   0  0  0  0  0  0  0  0  0  0  0  0
  -20.7055   -4.3627  -25.3994 C   0  0  0  0  0  0  0  0  0  0  0  0
  -16.7501   -4.1641  -26.7907 C   0  0  0  0  0  0  0  0  0  0  0  0
  -20.9703   -4.5766  -27.7929 C   0  0  0  0  0  0  0  0  0  0  0  0
  -20.7406   -4.9832  -31.5210 C   0  0  0  0  0  0  0  0  0  0  0  0
  -21.2765   -4.7863  -30.1916 C   0  0  0  0  0  0  0  0  0  0  0  0
  -19.7072   -5.3627  -34.0843 C   0  0  0  0  0  0  0  0  0  0  0  0
  -22.6445   -4.6123  -30.0229 C   0  0  0  0  0  0  0  0  0  0  0  0
  -20.4393   -4.7687  -29.0797 C   0  0  0  0  0  0  0  0  0  0  0  0
  -22.3583   -4.3994  -27.6141 C   0  0  0  0  0  0  0  0  0  0  0  0
  -20.1505   -4.5544  -26.6565 C   0  0  0  0  0  0  0  0  0  0  0  0
  -22.0737   -4.1984  -25.3242 C   0  0  0  0  0  0  0  0  0  0  0  0
  -18.0930   -5.8927  -26.5825 C   0  0  0  0  0  0  0  0  0  0  0  0
  -22.7188   -3.9950  -24.0384 C   0  0  0  0  0  0  0  0  0  0  0  0
  -20.7937   -6.9975  -36.4678 C   0  0  0  0  0  0  0  0  0  0  0  0
  -21.0943   -8.4015  -36.9762 C   0  0  0  0  0  0  0  0  0  0  0  0
  -18.8392   -8.7282  -37.5311 C   0  0  0  0  0  0  0  0  0  0  0  0
  -18.4615   -7.3260  -37.0249 C   0  0  2  0  0  0  0  0  0  0  0  0
  -23.5886   -4.6212  -31.1831 C   0  0  0  0  0  0  0  0  0  0  0  0
  -18.9717   -4.9633  -29.3398 C   0  0  0  0  0  0  0  0  0  0  0  0
  -18.7520   -7.2053  -26.4347 C   0  0  0  0  0  0  0  0  0  0  0  0
  -17.0078   -7.3533  -36.5416 C   0  0  0  0  0  0  0  0  0  0  0  0
  -19.1507   -5.5670  -35.4637 C   0  0  0  0  0  0  0  0  0  0  0  0
  -24.8143   -4.3139  -22.6974 C   0  0  0  0  0  0  0  0  0  0  0  0
  -25.5843   -3.0069  -22.7470 C   0  0  0  0  0  0  0  0  0  0  0  0
  -17.9777   -3.6381  -26.8080 N   0  0  0  0  0  0  0  0  0  0  0  0
  -22.8996   -4.2131  -26.3954 N   0  0  0  0  0  0  0  0  0  0  0  0
  -18.7724   -4.7142  -26.6797 N   0  0  0  0  0  0  0  0  0  0  0  0
  -19.4112   -6.9181  -35.9652 N   0  0  1  0  0  0  0  0  0  0  0  0
  -24.0322   -4.4618  -23.9038 N   0  0  0  0  0  0  0  0  0  0  0  0
  -22.1213   -3.4107  -23.1161 O   0  0  0  0  0  0  0  0  0  0  0  0
  -20.1819   -8.7499  -38.0143 O   0  0  0  0  0  0  0  0  0  0  0  0
  -24.6684   -1.9216  -22.8180 O   0  0  0  0  0  0  0  0  0  0  0  0
  -20.4334   -2.8731  -31.8926 H   0  0  0  0  0  0  0  0  0  0  0  0
  -20.9234   -7.1389  -31.4584 H   0  0  0  0  0  0  0  0  0  0  0  0
  -19.5223   -3.2117  -34.1517 H   0  0  0  0  0  0  0  0  0  0  0  0
  -20.0117   -7.4696  -33.7187 H   0  0  0  0  0  0  0  0  0  0  0  0
  -15.9194   -6.2408  -26.6099 H   0  0  0  0  0  0  0  0  0  0  0  0
  -24.2468   -4.2862  -28.6260 H   0  0  0  0  0  0  0  0  0  0  0  0
  -20.0928   -4.3413  -24.5023 H   0  0  0  0  0  0  0  0  0  0  0  0
  -15.8986   -3.5047  -26.8797 H   0  0  0  0  0  0  0  0  0  0  0  0
  -20.9409   -6.2758  -37.2820 H   0  0  0  0  0  0  0  0  0  0  0  0
  -21.5033   -6.7549  -35.6682 H   0  0  0  0  0  0  0  0  0  0  0  0
  -21.0415   -9.1458  -36.1723 H   0  0  0  0  0  0  0  0  0  0  0  0
  -22.1052   -8.4379  -37.3948 H   0  0  0  0  0  0  0  0  0  0  0  0
  -18.1912   -9.0150  -38.3666 H   0  0  0  0  0  0  0  0  0  0  0  0
  -18.7221   -9.4902  -36.7498 H   0  0  0  0  0  0  0  0  0  0  0  0
  -18.5401   -6.6241  -37.8668 H   0  0  0  0  0  0  0  0  0  0  0  0
  -23.7094   -3.6072  -31.5793 H   0  0  0  0  0  0  0  0  0  0  0  0
  -23.2203   -5.2706  -31.9857 H   0  0  0  0  0  0  0  0  0  0  0  0
  -24.5728   -5.0028  -30.8873 H   0  0  0  0  0  0  0  0  0  0  0  0
  -18.7267   -6.0276  -29.3002 H   0  0  0  0  0  0  0  0  0  0  0  0
  -18.6976   -4.5698  -30.3226 H   0  0  0  0  0  0  0  0  0  0  0  0
  -18.3731   -4.4306  -28.5955 H   0  0  0  0  0  0  0  0  0  0  0  0
  -18.9004   -7.4579  -25.3721 H   0  0  0  0  0  0  0  0  0  0  0  0
  -19.7395   -7.2301  -26.9263 H   0  0  0  0  0  0  0  0  0  0  0  0
  -18.1629   -8.0179  -26.8934 H   0  0  0  0  0  0  0  0  0  0  0  0
  -16.9142   -8.0444  -35.7076 H   0  0  0  0  0  0  0  0  0  0  0  0
  -16.7124   -6.3579  -36.2197 H   0  0  0  0  0  0  0  0  0  0  0  0
  -16.3604   -7.6771  -37.3526 H   0  0  0  0  0  0  0  0  0  0  0  0
  -19.5937   -4.8546  -36.1682 H   0  0  0  0  0  0  0  0  0  0  0  0
  -18.0674   -5.4077  -35.4780 H   0  0  0  0  0  0  0  0  0  0  0  0
  -24.1326   -4.3406  -21.8414 H   0  0  0  0  0  0  0  0  0  0  0  0
  -25.5045   -5.1604  -22.6324 H   0  0  0  0  0  0  0  0  0  0  0  0
  -26.1793   -2.8878  -21.8361 H   0  0  0  0  0  0  0  0  0  0  0  0
  -26.2492   -2.9641  -23.6158 H   0  0  0  0  0  0  0  0  0  0  0  0
  -24.4957   -4.8748  -24.7065 H   0  0  0  0  0  0  0  0  0  0  0  0
  -25.1993   -1.1094  -22.8478 H   0  0  0  0  0  0  0  0  0  0  0  0
  1  3  1  0  0  0  0
  1 10  2  0  0  0  0
  2  4  2  0  0  0  0
  2 10  1  0  0  0  0
  3 12  2  0  0  0  0
  4 12  1  0  0  0  0
  5  8  1  0  0  0  0
  5 18  2  0  0  0  0
  6 13  1  0  0  0  0
  6 15  2  0  0  0  0
  7 16  2  0  0  0  0
  7 17  1  0  0  0  0
  8 31  2  0  0  0  0
  9 14  2  0  0  0  0
  9 15  1  0  0  0  0
  9 16  1  0  0  0  0
 10 11  1  0  0  0  0
 11 13  2  0  0  0  0
 11 14  1  0  0  0  0
 12 28  1  0  0  0  0
 13 24  1  0  0  0  0
 14 25  1  0  0  0  0
 15 32  1  0  0  0  0
 16 33  1  0  0  0  0
 17 19  1  0  0  0  0
 17 32  2  0  0  0  0
 18 26  1  0  0  0  0
 18 33  1  0  0  0  0
 19 35  1  0  0  0  0
 19 36  2  0  0  0  0
 20 21  1  0  0  0  0
 20 34  1  0  0  0  0
 21 37  1  0  0  0  0
 22 23  1  0  0  0  0
 22 37  1  0  0  0  0
 23 27  1  0  0  0  0
 23 34  1  0  0  0  0
 28 34  1  0  0  0  0
 29 30  1  0  0  0  0
 29 35  1  0  0  0  0
 30 38  1  0  0  0  0
 31 33  1  0  0  0  0
  1 39  1  0  0  0  0
  2 40  1  0  0  0  0
  3 41  1  0  0  0  0
  4 42  1  0  0  0  0
  5 43  1  0  0  0  0
  6 44  1  0  0  0  0
  7 45  1  0  0  0  0
  8 46  1  0  0  0  0
 20 47  1  0  0  0  0
 20 48  1  0  0  0  0
 21 49  1  0  0  0  0
 21 50  1  0  0  0  0
 22 51  1  0  0  0  0
 22 52  1  0  0  0  0
 23 53  1  0  0  0  0
 24 54  1  0  0  0  0
 24 55  1  0  0  0  0
 24 56  1  0  0  0  0
 25 57  1  0  0  0  0
 25 58  1  0  0  0  0
 25 59  1  0  0  0  0
 26 60  1  0  0  0  0
 26 61  1  0  0  0  0
 26 62  1  0  0  0  0
 27 63  1  0  0  0  0
 27 64  1  0  0  0  0
 27 65  1  0  0  0  0
 28 66  1  0  0  0  0
 28 67  1  0  0  0  0
 29 68  1  0  0  0  0
 29 69  1  0  0  0  0
 30 70  1  0  0  0  0
 30 71  1  0  0  0  0
 35 72  1  0  0  0  0
 38 73  1  0  0  0  0
M  END
> <SMILES>
C[C@H]1COCCN1Cc1ccc(cc1)-c1c(cc2nc(cc(c2c1C)-n1nccc1C)C(=O)NCCO)C

> <FORMATTED_ID>
H3D-006177

> <MOLFORMULA>
C30H35N5O3

> <Exact Mass>
513.27

> <XLogP>
3.53

> <TPSA_NOPS>
92.5

> <s_m_source_file>
ligprep_h3d.sdf

> <i_m_source_file_index>
1013

> <i_lp_mmshare_version>
55123

> <i_f3d_flags>
0

> <s_epik_input>
W0NIM11bQ0BIXTFbQ0gyXU9bQ0gyXVtDSDJdTjFbQ0gyXWMyW2NIXVtjSF1jKFtjSF1bY0hdMiktYyhjKFtjSF0zKVtDSDNdKWMoW0NIM10pYyhjMzQpYygtbjVuW2NIXVtjSF1jNVtDSDNdKVtjSF1jKG40KUMoPU8pW05IXVtDSDJdW0NIMl1bT0hd

> <s_epik_cmdline>
J2VwaWtfcHl0aG9uJywgJy1waHQnLCAnMC41JywgJy1waCcsICc3LjUnLCAnLXRuJywgJzgnLCAnLW1hJywgJzUwMCcsICctaW1hZScsICc8aW5maWxlLm1hZT4nLCAnLW9tYWUnLCAnPG91dGZpbGUubWFlPic=

> <r_lp_tautomer_probability>
1

> <r_epik_Ionization_Penalty>
0.10556

> <r_epik_Ionization_Penalty_Charging>
0

> <r_epik_Ionization_Penalty_Neutral>
0.10556

> <r_epik_State_Penalty>
0.095414

> <r_epik_Charging_Adjusted_Penalty>
0.095414

> <i_epik_Tot_Q>
0

> <i_epik_Tot_abs_Q>
0

> <s_lp_Force_Field>
S-OPLS

> <r_lp_Energy>
64.1768

> <b_lp_Chiralities_Consistent>
1

> <s_lp_Variant>
ligprep_h3d.sdf:1013-1

> <ROCS_ShapeQuery>
_7L13

> <ROCS_TanimotoCombo>
0.694 

> <ROCS_ShapeTanimoto>
0.592 

> <ROCS_ColorTanimoto>
0.102 

> <ROCS_RefTversky>
0.763 

> <ROCS_RefColorTversky>
0.221 

> <ROCS_RefTverskyCombo>
0.984 

> <ROCS_FitTversky>
0.726 

> <ROCS_FitColorTversky>
0.159 

> <ROCS_FitTverskyCombo>
0.885 

> <ROCS_ColorScore>
-2.036

> <ROCS_Overlap>
1270.297

> <ROCS_Rank>
683                 

$$$$
ligprep_h3d.sdf:971_1859
  -OEChem-08212117123D

 66 69  0     0  0  0  0  0  0999 V2000
  -20.7185   -4.4355  -25.2829 C   0  0  0  0  0  0  0  0  0  0  0  0
  -23.0036   -4.1657  -28.7435 C   0  0  0  0  0  0  0  0  0  0  0  0
  -20.8771   -4.5519  -27.6925 C   0  0  0  0  0  0  0  0  0  0  0  0
  -20.1188   -4.6397  -26.5172 C   0  0  0  0  0  0  0  0  0  0  0  0
  -18.7086   -4.9351  -26.4589 C   0  0  0  0  0  0  0  0  0  0  0  0
  -21.0763   -4.6603  -30.1091 C   0  0  0  0  0  0  0  0  0  0  0  0
  -22.4298   -4.3660  -30.0014 C   0  0  0  0  0  0  0  0  0  0  0  0
  -20.2998   -4.7534  -28.9577 C   0  0  0  0  0  0  0  0  0  0  0  0
  -22.2508   -4.2530  -27.5756 C   0  0  0  0  0  0  0  0  0  0  0  0
  -22.0683   -4.1480  -25.2689 C   0  0  0  0  0  0  0  0  0  0  0  0
  -17.5767   -4.1022  -26.4850 C   0  0  0  0  0  0  0  0  0  0  0  0
  -18.1829   -6.1959  -26.3572 C   0  0  0  0  0  0  0  0  0  0  0  0
  -19.9199   -3.7850  -32.2245 C   0  0  0  0  0  0  0  0  0  0  0  0
  -20.4637   -6.1180  -31.9474 C   0  0  0  0  0  0  0  0  0  0  0  0
  -19.3870   -4.0202  -33.4280 C   0  0  0  0  0  0  0  0  0  0  0  0
  -20.4850   -4.8698  -31.4457 C   0  0  0  0  0  0  0  0  0  0  0  0
  -19.8723   -6.3972  -33.2930 C   0  0  0  0  0  0  0  0  0  0  0  0
  -22.7572   -3.9233  -24.0097 C   0  0  0  0  0  0  0  0  0  0  0  0
  -23.3096   -4.2538  -31.2059 C   0  0  0  0  0  0  0  0  0  0  0  0
  -18.8462   -5.0754  -29.1613 C   0  0  0  0  0  0  0  0  0  0  0  0
  -17.5303   -2.6331  -26.5860 C   0  0  0  0  0  0  0  0  0  0  0  0
  -18.7607   -7.5454  -26.2794 C   0  0  0  0  0  0  0  0  0  0  0  0
  -21.9596   -4.7553  -36.8912 C   0  0  0  0  0  0  0  0  0  0  0  0
  -18.7511   -5.4473  -35.2903 C   0  0  0  0  0  0  0  0  0  0  0  0
  -24.9388   -4.0864  -22.7829 C   0  0  0  0  0  0  0  0  0  0  0  0
  -19.8431   -5.6100  -36.3318 C   0  0  0  0  0  0  0  0  0  0  0  0
  -26.0215   -5.1495  -22.7511 C   0  0  0  0  0  0  0  0  0  0  0  0
  -22.8355   -4.0543  -26.3791 N   0  0  0  0  0  0  0  0  0  0  0  0
  -16.4362   -4.7935  -26.4055 N   0  0  0  0  0  0  0  0  0  0  0  0
  -19.3527   -5.2906  -33.9715 N   0  0  0  0  0  0  0  0  0  0  0  0
  -24.1127   -4.2708  -23.9544 N   0  0  0  0  0  0  0  0  0  0  0  0
  -19.8764   -7.5537  -33.7123 O   0  0  0  0  0  0  0  0  0  0  0  0
  -22.1572   -3.4236  -23.0405 O   0  0  0  0  0  0  0  0  0  0  0  0
  -16.8276   -6.1245  -26.3245 O   0  0  0  0  0  0  0  0  0  0  0  0
  -26.8469   -5.0175  -23.9014 O   0  0  0  0  0  0  0  0  0  0  0  0
  -20.6979   -4.4741  -36.3012 O   0  0  0  0  0  0  0  0  0  0  0  0
  -20.1568   -4.4970  -24.3549 H   0  0  0  0  0  0  0  0  0  0  0  0
  -24.0662   -3.9354  -28.6743 H   0  0  0  0  0  0  0  0  0  0  0  0
  -19.9367   -2.7803  -31.8140 H   0  0  0  0  0  0  0  0  0  0  0  0
  -20.8707   -6.9700  -31.4089 H   0  0  0  0  0  0  0  0  0  0  0  0
  -18.9604   -3.2202  -34.0229 H   0  0  0  0  0  0  0  0  0  0  0  0
  -23.3182   -3.2216  -31.5724 H   0  0  0  0  0  0  0  0  0  0  0  0
  -22.9604   -4.9100  -32.0115 H   0  0  0  0  0  0  0  0  0  0  0  0
  -24.3382   -4.5523  -30.9718 H   0  0  0  0  0  0  0  0  0  0  0  0
  -18.7013   -6.1587  -29.1491 H   0  0  0  0  0  0  0  0  0  0  0  0
  -18.4918   -4.6784  -30.1168 H   0  0  0  0  0  0  0  0  0  0  0  0
  -18.2358   -4.6245  -28.3735 H   0  0  0  0  0  0  0  0  0  0  0  0
  -17.5466   -2.1628  -25.5881 H   0  0  0  0  0  0  0  0  0  0  0  0
  -16.6220   -2.2797  -27.1056 H   0  0  0  0  0  0  0  0  0  0  0  0
  -18.3832   -2.2279  -27.1590 H   0  0  0  0  0  0  0  0  0  0  0  0
  -18.8912   -7.9866  -27.2835 H   0  0  0  0  0  0  0  0  0  0  0  0
  -18.1298   -8.2391  -25.6936 H   0  0  0  0  0  0  0  0  0  0  0  0
  -19.7500   -7.5506  -25.7854 H   0  0  0  0  0  0  0  0  0  0  0  0
  -22.5888   -3.8628  -36.8504 H   0  0  0  0  0  0  0  0  0  0  0  0
  -22.4391   -5.5772  -36.3536 H   0  0  0  0  0  0  0  0  0  0  0  0
  -21.8079   -5.0440  -37.9340 H   0  0  0  0  0  0  0  0  0  0  0  0
  -18.0931   -6.3217  -35.2654 H   0  0  0  0  0  0  0  0  0  0  0  0
  -18.1537   -4.5552  -35.5010 H   0  0  0  0  0  0  0  0  0  0  0  0
  -25.3705   -3.0813  -22.8225 H   0  0  0  0  0  0  0  0  0  0  0  0
  -24.2995   -4.1672  -21.8986 H   0  0  0  0  0  0  0  0  0  0  0  0
  -20.4477   -6.4939  -36.1061 H   0  0  0  0  0  0  0  0  0  0  0  0
  -19.4267   -5.7102  -37.3394 H   0  0  0  0  0  0  0  0  0  0  0  0
  -26.6516   -5.0163  -21.8661 H   0  0  0  0  0  0  0  0  0  0  0  0
  -25.5953   -6.1579  -22.7373 H   0  0  0  0  0  0  0  0  0  0  0  0
  -24.5700   -4.6159  -24.7920 H   0  0  0  0  0  0  0  0  0  0  0  0
  -27.5222   -5.7123  -23.8420 H   0  0  0  0  0  0  0  0  0  0  0  0
  1  4  2  0  0  0  0
  1 10  1  0  0  0  0
  2  7  1  0  0  0  0
  2  9  2  0  0  0  0
  3  4  1  0  0  0  0
  3  8  2  0  0  0  0
  3  9  1  0  0  0  0
  4  5  1  0  0  0  0
  5 11  1  0  0  0  0
  5 12  2  0  0  0  0
  6  7  2  0  0  0  0
  6  8  1  0  0  0  0
  6 16  1  0  0  0  0
  7 19  1  0  0  0  0
  8 20  1  0  0  0  0
  9 28  1  0  0  0  0
 10 18  1  0  0  0  0
 10 28  2  0  0  0  0
 11 21  1  0  0  0  0
 11 29  2  0  0  0  0
 12 22  1  0  0  0  0
 12 34  1  0  0  0  0
 13 15  2  0  0  0  0
 13 16  1  0  0  0  0
 14 16  2  0  0  0  0
 14 17  1  0  0  0  0
 15 30  1  0  0  0  0
 17 30  1  0  0  0  0
 17 32  2  0  0  0  0
 18 31  1  0  0  0  0
 18 33  2  0  0  0  0
 23 36  1  0  0  0  0
 24 26  1  0  0  0  0
 24 30  1  0  0  0  0
 25 27  1  0  0  0  0
 25 31  1  0  0  0  0
 26 36  1  0  0  0  0
 27 35  1  0  0  0  0
 29 34  1  0  0  0  0
  1 37  1  0  0  0  0
  2 38  1  0  0  0  0
 13 39  1  0  0  0  0
 14 40  1  0  0  0  0
 15 41  1  0  0  0  0
 19 42  1  0  0  0  0
 19 43  1  0  0  0  0
 19 44  1  0  0  0  0
 20 45  1  0  0  0  0
 20 46  1  0  0  0  0
 20 47  1  0  0  0  0
 21 48  1  0  0  0  0
 21 49  1  0  0  0  0
 21 50  1  0  0  0  0
 22 51  1  0  0  0  0
 22 52  1  0  0  0  0
 22 53  1  0  0  0  0
 23 54  1  0  0  0  0
 23 55  1  0  0  0  0
 23 56  1  0  0  0  0
 24 57  1  0  0  0  0
 24 58  1  0  0  0  0
 25 59  1  0  0  0  0
 25 60  1  0  0  0  0
 26 61  1  0  0  0  0
 26 62  1  0  0  0  0
 27 63  1  0  0  0  0
 27 64  1  0  0  0  0
 31 65  1  0  0  0  0
 35 66  1  0  0  0  0
M  END
> <SMILES>
COCCN1C=CC(=CC1=O)c1c(cc2nc(cc(c2c1C)-c1c(noc1C)C)C(=O)NCCO)C

> <FORMATTED_ID>
H3D-006017

> <MOLFORMULA>
C27H30N4O5

> <Exact Mass>
490.22

> <XLogP>
1.89

> <TPSA_NOPS>
118.1

> <s_m_source_file>
ligprep_h3d.sdf

> <i_m_source_file_index>
971

> <i_lp_mmshare_version>
55123

> <i_f3d_flags>
0

> <s_epik_input>
W0NIM11PW0NIMl1bQ0gyXW4xW2NIXVtjSF1jKFtjSF1jMT1PKS1jKGMoW2NIXTIpW0NIM10pYyhbQ0gzXSljKGMyMyljKC1jNGMoW0NIM10pbm9jNFtDSDNdKVtjSF1jKG4zKUMoPU8pW05IXVtDSDJdW0NIMl1bT0hd

> <s_epik_cmdline>
J2VwaWtfcHl0aG9uJywgJy1waHQnLCAnMC41JywgJy1waCcsICc3LjUnLCAnLXRuJywgJzgnLCAnLW1hJywgJzUwMCcsICctaW1hZScsICc8aW5maWxlLm1hZT4nLCAnLW9tYWUnLCAnPG91dGZpbGUubWFlPic=

> <r_lp_tautomer_probability>
1

> <r_epik_Ionization_Penalty>
5.04933e-05

> <r_epik_Ionization_Penalty_Charging>
2.32377e-07

> <r_epik_Ionization_Penalty_Neutral>
5.02609e-05

> <r_epik_State_Penalty>
-0

> <r_epik_Charging_Adjusted_Penalty>
2.32377e-07

> <i_epik_Tot_Q>
0

> <i_epik_Tot_abs_Q>
0

> <s_lp_Force_Field>
S-OPLS

> <r_lp_Energy>
63.9479

> <b_lp_Chiralities_Consistent>
1

> <s_lp_Variant>
ligprep_h3d.sdf:971-1

> <ROCS_ShapeQuery>
_7L13

> <ROCS_TanimotoCombo>
0.728 

> <ROCS_ShapeTanimoto>
0.619 

> <ROCS_ColorTanimoto>
0.109 

> <ROCS_RefTversky>
0.763 

> <ROCS_RefColorTversky>
0.226 

> <ROCS_RefTverskyCombo>
0.989 

> <ROCS_FitTversky>
0.767 

> <ROCS_FitColorTversky>
0.175 

> <ROCS_FitTverskyCombo>
0.941 

> <ROCS_ColorScore>
-2.070

> <ROCS_Overlap>
1266.314

> <ROCS_Rank>
684                 

$$$$
ligprep_h3d.sdf:1748_1049
  -OEChem-08212117123D

 61 65  0     0  0  0  0  0  0999 V2000
  -19.4721   -4.6591  -29.9258 C   0  0  0  0  0  0  0  0  0  0  0  0
  -25.3136   -5.7617  -23.8948 C   0  0  0  0  0  0  0  0  0  0  0  0
  -24.8782   -3.4866  -23.2081 C   0  0  0  0  0  0  0  0  0  0  0  0
  -21.9177   -4.3137  -33.9571 C   0  0  0  0  0  0  0  0  0  0  0  0
  -19.2753   -4.4762  -28.5565 C   0  0  0  0  0  0  0  0  0  0  0  0
  -24.2728   -5.6816  -24.8200 C   0  0  0  0  0  0  0  0  0  0  0  0
  -23.8373   -3.4066  -24.1332 C   0  0  0  0  0  0  0  0  0  0  0  0
  -21.3320   -5.4140  -34.5830 C   0  0  0  0  0  0  0  0  0  0  0  0
  -21.8528   -4.7963  -29.5613 C   0  0  0  0  0  0  0  0  0  0  0  0
  -20.3806   -6.1076  -32.4733 C   0  0  0  0  0  0  0  0  0  0  0  0
  -20.7610   -4.8179  -30.4278 C   0  0  0  0  0  0  0  0  0  0  0  0
  -20.9663   -5.0071  -31.8474 C   0  0  0  0  0  0  0  0  0  0  0  0
  -21.6485   -4.6126  -28.1880 C   0  0  0  0  0  0  0  0  0  0  0  0
  -25.6163   -4.6642  -23.0889 C   0  0  0  0  0  0  0  0  0  0  0  0
  -21.7348   -4.1102  -32.5893 C   0  0  0  0  0  0  0  0  0  0  0  0
  -20.3632   -4.4518  -27.6752 C   0  0  0  0  0  0  0  0  0  0  0  0
  -23.5346   -4.5041  -24.9392 C   0  0  0  0  0  0  0  0  0  0  0  0
  -20.5635   -6.3110  -33.8411 C   0  0  0  0  0  0  0  0  0  0  0  0
  -22.7895   -4.6149  -27.2524 C   0  0  0  0  0  0  0  0  0  0  0  0
  -21.1220   -4.2068  -25.4718 C   0  0  0  0  0  0  0  0  0  0  0  0
  -18.7013   -5.8710  -36.2915 C   0  0  0  0  0  0  0  0  0  0  0  0
  -19.2168   -8.0821  -37.2384 C   0  0  0  0  0  0  0  0  0  0  0  0
  -18.7862   -5.3046  -37.7018 C   0  0  0  0  0  0  0  0  0  0  0  0
  -19.2795   -7.4228  -38.6091 C   0  0  0  0  0  0  0  0  0  0  0  0
  -22.3768   -2.9189  -31.9535 C   0  0  0  0  0  0  0  0  0  0  0  0
  -26.7292   -4.7498  -22.0997 C   0  0  0  0  0  0  0  0  0  0  0  0
  -20.1219   -4.2411  -26.3152 N   0  0  0  0  0  0  0  0  0  0  0  0
  -22.4594   -4.4212  -25.8944 N   0  0  0  0  0  0  0  0  0  0  0  0
  -19.5832   -7.0717  -36.2032 N   0  0  0  0  0  0  0  0  0  0  0  0
  -20.8366   -3.8984  -24.1595 N   0  0  0  0  0  0  0  0  0  0  0  0
  -23.9107   -4.8363  -27.7039 O   0  0  0  0  0  0  0  0  0  0  0  0
  -18.5373   -7.9359  -34.0077 O   0  0  0  0  0  0  0  0  0  0  0  0
  -20.8177   -8.7592  -34.6932 O   0  0  0  0  0  0  0  0  0  0  0  0
  -18.4025   -6.2952  -38.6582 O   0  0  0  0  0  0  0  0  0  0  0  0
  -27.3632   -5.9598  -22.0924 F   0  0  0  0  0  0  0  0  0  0  0  0
  -26.3301   -4.5493  -20.8089 F   0  0  0  0  0  0  0  0  0  0  0  0
  -27.7072   -3.8256  -22.3283 F   0  0  0  0  0  0  0  0  0  0  0  0
  -19.8325   -7.6889  -34.6258 S   0  0  0  0  0  0  0  0  0  0  0  0
  -18.6090   -4.6732  -30.5871 H   0  0  0  0  0  0  0  0  0  0  0  0
  -25.8849   -6.6824  -23.8102 H   0  0  0  0  0  0  0  0  0  0  0  0
  -25.1076   -2.6264  -22.5847 H   0  0  0  0  0  0  0  0  0  0  0  0
  -22.5122   -3.6193  -34.5452 H   0  0  0  0  0  0  0  0  0  0  0  0
  -18.2633   -4.3484  -28.1790 H   0  0  0  0  0  0  0  0  0  0  0  0
  -24.0454   -6.5433  -25.4427 H   0  0  0  0  0  0  0  0  0  0  0  0
  -23.2692   -2.4837  -24.2186 H   0  0  0  0  0  0  0  0  0  0  0  0
  -21.4793   -5.5621  -35.6494 H   0  0  0  0  0  0  0  0  0  0  0  0
  -22.8579   -4.9257  -29.9567 H   0  0  0  0  0  0  0  0  0  0  0  0
  -19.7792   -6.8104  -31.9002 H   0  0  0  0  0  0  0  0  0  0  0  0
  -17.6720   -6.1678  -36.0597 H   0  0  0  0  0  0  0  0  0  0  0  0
  -19.0291   -5.1152  -35.5708 H   0  0  0  0  0  0  0  0  0  0  0  0
  -19.9169   -8.9226  -37.2018 H   0  0  0  0  0  0  0  0  0  0  0  0
  -18.2035   -8.4476  -37.0359 H   0  0  0  0  0  0  0  0  0  0  0  0
  -19.7977   -4.9498  -37.9332 H   0  0  0  0  0  0  0  0  0  0  0  0
  -18.1024   -4.4565  -37.8064 H   0  0  0  0  0  0  0  0  0  0  0  0
  -18.9577   -8.1303  -39.3796 H   0  0  0  0  0  0  0  0  0  0  0  0
  -20.2985   -7.1005  -38.8549 H   0  0  0  0  0  0  0  0  0  0  0  0
  -23.3806   -3.1754  -31.5972 H   0  0  0  0  0  0  0  0  0  0  0  0
  -21.7847   -2.5576  -31.1045 H   0  0  0  0  0  0  0  0  0  0  0  0
  -22.4582   -2.0881  -32.6644 H   0  0  0  0  0  0  0  0  0  0  0  0
  -19.8925   -3.7185  -23.9196 H   0  0  0  0  0  0  0  0  0  0  0  0
  -21.5884   -3.8705  -23.5149 H   0  0  0  0  0  0  0  0  0  0  0  0
  1  5  1  0  0  0  0
  1 11  2  0  0  0  0
  2  6  1  0  0  0  0
  2 14  2  0  0  0  0
  3  7  2  0  0  0  0
  3 14  1  0  0  0  0
  4  8  1  0  0  0  0
  4 15  2  0  0  0  0
  5 16  2  0  0  0  0
  6 17  2  0  0  0  0
  7 17  1  0  0  0  0
  8 18  2  0  0  0  0
  9 11  1  0  0  0  0
  9 13  2  0  0  0  0
 10 12  2  0  0  0  0
 10 18  1  0  0  0  0
 11 12  1  0  0  0  0
 12 15  1  0  0  0  0
 13 16  1  0  0  0  0
 13 19  1  0  0  0  0
 14 26  1  0  0  0  0
 15 25  1  0  0  0  0
 16 27  1  0  0  0  0
 17 28  1  0  0  0  0
 18 38  1  0  0  0  0
 19 28  1  0  0  0  0
 19 31  2  0  0  0  0
 20 27  2  0  0  0  0
 20 28  1  0  0  0  0
 20 30  1  0  0  0  0
 21 23  1  0  0  0  0
 21 29  1  0  0  0  0
 22 24  1  0  0  0  0
 22 29  1  0  0  0  0
 23 34  1  0  0  0  0
 24 34  1  0  0  0  0
 26 35  1  0  0  0  0
 26 36  1  0  0  0  0
 26 37  1  0  0  0  0
 29 38  1  0  0  0  0
 32 38  2  0  0  0  0
 33 38  2  0  0  0  0
  1 39  1  0  0  0  0
  2 40  1  0  0  0  0
  3 41  1  0  0  0  0
  4 42  1  0  0  0  0
  5 43  1  0  0  0  0
  6 44  1  0  0  0  0
  7 45  1  0  0  0  0
  8 46  1  0  0  0  0
  9 47  1  0  0  0  0
 10 48  1  0  0  0  0
 21 49  1  0  0  0  0
 21 50  1  0  0  0  0
 22 51  1  0  0  0  0
 22 52  1  0  0  0  0
 23 53  1  0  0  0  0
 23 54  1  0  0  0  0
 24 55  1  0  0  0  0
 24 56  1  0  0  0  0
 25 57  1  0  0  0  0
 25 58  1  0  0  0  0
 25 59  1  0  0  0  0
 30 60  1  0  0  0  0
 30 61  1  0  0  0  0
M  END
> <SMILES>
Cc1ccc(cc1-c1ccc2c(c1)C(=O)N(C(=N2)N)c1ccc(cc1)C(F)(F)F)S(=O)(=O)N1CCOCC1

> <FORMATTED_ID>
H3D-002796

> <MOLFORMULA>
C26H23F3N4O4S

> <Exact Mass>
544.14

> <XLogP>
4.1

> <TPSA_NOPS>
113.7

> <s_m_source_file>
ligprep_h3d.sdf

> <i_m_source_file_index>
1748

> <i_lp_mmshare_version>
55123

> <i_f3d_flags>
0

> <s_epik_input>
W0NIMl0xW0NIMl1PW0NIMl1bQ0gyXU4xUyg9TykoPU8pYyhbY0hdW2NIXWMyW0NIM10pW2NIXWMyLWMoW2NIXVtjSF0zKVtjSF1jKGMzNCljKD1PKW4oYyhuNClbTkgyXSktYzVbY0hdW2NIXWMoQyhGKShGKUYpW2NIXVtjSF01

> <s_epik_cmdline>
J2VwaWtfcHl0aG9uJywgJy1waHQnLCAnMC41JywgJy1waCcsICc3LjUnLCAnLXRuJywgJzgnLCAnLW1hJywgJzUwMCcsICctaW1hZScsICc8aW5maWxlLm1hZT4nLCAnLW9tYWUnLCAnPG91dGZpbGUubWFlPic=

> <r_lp_tautomer_probability>
1

> <r_epik_Ionization_Penalty>
3.61852e-06

> <r_epik_Ionization_Penalty_Charging>
3.91892e-10

> <r_epik_Ionization_Penalty_Neutral>
3.61813e-06

> <r_epik_State_Penalty>
-0

> <r_epik_Charging_Adjusted_Penalty>
3.91892e-10

> <i_epik_Tot_Q>
0

> <i_epik_Tot_abs_Q>
0

> <s_lp_Force_Field>
S-OPLS

> <r_lp_Energy>
62.6116

> <b_lp_Chiralities_Consistent>
1

> <s_lp_Variant>
ligprep_h3d.sdf:1748-1

> <ROCS_ShapeQuery>
_7L13

> <ROCS_TanimotoCombo>
0.701 

> <ROCS_ShapeTanimoto>
0.594 

> <ROCS_ColorTanimoto>
0.107 

> <ROCS_RefTversky>
0.763 

> <ROCS_RefColorTversky>
0.222 

> <ROCS_RefTverskyCombo>
0.985 

> <ROCS_FitTversky>
0.728 

> <ROCS_FitColorTversky>
0.171 

> <ROCS_FitTverskyCombo>
0.899 

> <ROCS_ColorScore>
-2.032

> <ROCS_Overlap>
1269.827

> <ROCS_Rank>
685                 

$$$$
ligprep_h3d.sdf:5772_1020
  -OEChem-08212117123D

 59 63  0     0  0  0  0  0  0999 V2000
  -20.9825   -6.2713  -26.0368 C   0  0  0  0  0  0  0  0  0  0  0  0
  -19.9563   -4.0938  -25.8305 C   0  0  0  0  0  0  0  0  0  0  0  0
  -23.9610   -4.6335  -26.4584 C   0  0  0  0  0  0  0  0  0  0  0  0
  -23.3453   -2.9559  -24.8324 C   0  0  0  0  0  0  0  0  0  0  0  0
  -20.3895   -7.0668  -34.2329 C   0  0  0  0  0  0  0  0  0  0  0  0
  -19.9560   -4.6905  -34.1847 C   0  0  0  0  0  0  0  0  0  0  0  0
  -24.6859   -5.3150  -25.4808 C   0  0  0  0  0  0  0  0  0  0  0  0
  -24.0703   -3.6374  -23.8548 C   0  0  0  0  0  0  0  0  0  0  0  0
  -19.8848   -7.1325  -35.5315 C   0  0  0  0  0  0  0  0  0  0  0  0
  -19.4513   -4.7562  -35.4834 C   0  0  0  0  0  0  0  0  0  0  0  0
  -20.5504   -6.5967  -24.7511 C   0  0  0  0  0  0  0  0  0  0  0  0
  -19.5242   -4.4192  -24.5448 C   0  0  0  0  0  0  0  0  0  0  0  0
  -22.9981   -2.6591  -30.2463 C   0  0  0  0  0  0  0  0  0  0  0  0
  -20.8414   -5.3006  -29.1022 C   0  0  0  0  0  0  0  0  0  0  0  0
  -23.0306   -2.8789  -31.6099 C   0  0  0  0  0  0  0  0  0  0  0  0
  -21.5215   -4.5985  -30.1401 C   0  0  0  0  0  0  0  0  0  0  0  0
  -20.6854   -5.0198  -26.5765 C   0  0  0  0  0  0  0  0  0  0  0  0
  -23.2907   -3.4540  -26.1342 C   0  0  0  0  0  0  0  0  0  0  0  0
  -22.2178   -3.5561  -29.5280 C   0  0  0  0  0  0  0  0  0  0  0  0
  -20.4252   -5.8457  -33.5594 C   0  0  0  0  0  0  0  0  0  0  0  0
  -19.4157   -5.9773  -36.1568 C   0  0  0  0  0  0  0  0  0  0  0  0
  -24.7406   -4.8169  -24.1790 C   0  0  0  0  0  0  0  0  0  0  0  0
  -19.8213   -5.6707  -24.0051 C   0  0  0  0  0  0  0  0  0  0  0  0
  -21.1340   -4.6819  -27.9090 C   0  0  0  0  0  0  0  0  0  0  0  0
  -21.5912   -4.7728  -31.5216 C   0  0  0  0  0  0  0  0  0  0  0  0
  -18.9162   -7.3217  -38.0539 C   0  0  0  0  0  0  0  0  0  0  0  0
  -22.5090   -2.7183  -27.1889 C   0  0  0  0  0  0  0  0  0  0  0  0
  -26.5245   -4.8008  -22.5885 C   0  0  0  0  0  0  0  0  0  0  0  0
  -21.9662   -3.6294  -28.1769 N   0  0  0  0  0  0  0  0  0  0  0  0
  -22.3529   -3.8861  -32.1675 N   0  3  0  0  0  0  0  0  0  0  0  0
  -20.9377   -5.7790  -32.2409 N   0  0  0  0  0  0  0  0  0  0  0  0
  -18.9231   -6.0415  -37.4240 O   0  0  0  0  0  0  0  0  0  0  0  0
  -25.4491   -5.4814  -23.2256 O   0  0  0  0  0  0  0  0  0  0  0  0
  -19.4070   -5.9828  -22.7700 F   0  0  0  0  0  0  0  0  0  0  0  0
  -27.0857   -3.8955  -23.4178 F   0  0  0  0  0  0  0  0  0  0  0  0
  -26.0439   -4.1378  -21.5122 F   0  0  0  0  0  0  0  0  0  0  0  0
  -27.4620   -5.6706  -22.1563 F   0  0  0  0  0  0  0  0  0  0  0  0
  -21.5495   -7.0045  -26.6056 H   0  0  0  0  0  0  0  0  0  0  0  0
  -19.7173   -3.1138  -26.2369 H   0  0  0  0  0  0  0  0  0  0  0  0
  -23.9238   -5.0288  -27.4699 H   0  0  0  0  0  0  0  0  0  0  0  0
  -22.8260   -2.0376  -24.5707 H   0  0  0  0  0  0  0  0  0  0  0  0
  -20.7524   -7.9732  -33.7551 H   0  0  0  0  0  0  0  0  0  0  0  0
  -19.9792   -3.7338  -33.6691 H   0  0  0  0  0  0  0  0  0  0  0  0
  -25.2063   -6.2333  -25.7396 H   0  0  0  0  0  0  0  0  0  0  0  0
  -24.1093   -3.2441  -22.8429 H   0  0  0  0  0  0  0  0  0  0  0  0
  -19.8596   -8.0866  -36.0510 H   0  0  0  0  0  0  0  0  0  0  0  0
  -19.0872   -3.8529  -35.9652 H   0  0  0  0  0  0  0  0  0  0  0  0
  -20.7825   -7.5706  -24.3306 H   0  0  0  0  0  0  0  0  0  0  0  0
  -18.9564   -3.6983  -23.9639 H   0  0  0  0  0  0  0  0  0  0  0  0
  -23.5422   -1.8472  -29.7810 H   0  0  0  0  0  0  0  0  0  0  0  0
  -20.2053   -6.1680  -29.2229 H   0  0  0  0  0  0  0  0  0  0  0  0
  -23.5957   -2.2609  -32.2952 H   0  0  0  0  0  0  0  0  0  0  0  0
  -18.4984   -7.2315  -39.0596 H   0  0  0  0  0  0  0  0  0  0  0  0
  -19.9368   -7.7091  -38.1051 H   0  0  0  0  0  0  0  0  0  0  0  0
  -18.2986   -8.0041  -37.4651 H   0  0  0  0  0  0  0  0  0  0  0  0
  -23.1375   -1.9843  -27.7077 H   0  0  0  0  0  0  0  0  0  0  0  0
  -21.6769   -2.1575  -26.7462 H   0  0  0  0  0  0  0  0  0  0  0  0
  -22.4217   -3.9902  -33.1802 H   0  0  0  0  0  0  0  0  0  0  0  0
  -20.7968   -6.6435  -31.7173 H   0  0  0  0  0  0  0  0  0  0  0  0
  1 11  1  0  0  0  0
  1 17  2  0  0  0  0
  2 12  2  0  0  0  0
  2 17  1  0  0  0  0
  3  7  1  0  0  0  0
  3 18  2  0  0  0  0
  4  8  2  0  0  0  0
  4 18  1  0  0  0  0
  5  9  1  0  0  0  0
  5 20  2  0  0  0  0
  6 10  2  0  0  0  0
  6 20  1  0  0  0  0
  7 22  2  0  0  0  0
  8 22  1  0  0  0  0
  9 21  2  0  0  0  0
 10 21  1  0  0  0  0
 11 23  2  0  0  0  0
 12 23  1  0  0  0  0
 13 15  1  0  0  0  0
 13 19  2  0  0  0  0
 14 16  1  0  0  0  0
 14 24  2  0  0  0  0
 15 30  2  0  0  0  0
 16 19  1  0  0  0  0
 16 25  2  0  0  0  0
 17 24  1  0  0  0  0
 18 27  1  0  0  0  0
 19 29  1  0  0  0  0
 20 31  1  0  0  0  0
 21 32  1  0  0  0  0
 22 33  1  0  0  0  0
 23 34  1  0  0  0  0
 24 29  1  0  0  0  0
 25 30  1  0  0  0  0
 25 31  1  0  0  0  0
 26 32  1  0  0  0  0
 27 29  1  0  0  0  0
 28 33  1  0  0  0  0
 28 35  1  0  0  0  0
 28 36  1  0  0  0  0
 28 37  1  0  0  0  0
  1 38  1  0  0  0  0
  2 39  1  0  0  0  0
  3 40  1  0  0  0  0
  4 41  1  0  0  0  0
  5 42  1  0  0  0  0
  6 43  1  0  0  0  0
  7 44  1  0  0  0  0
  8 45  1  0  0  0  0
  9 46  1  0  0  0  0
 10 47  1  0  0  0  0
 11 48  1  0  0  0  0
 12 49  1  0  0  0  0
 13 50  1  0  0  0  0
 14 51  1  0  0  0  0
 15 52  1  0  0  0  0
 26 53  1  0  0  0  0
 26 54  1  0  0  0  0
 26 55  1  0  0  0  0
 27 56  1  0  0  0  0
 27 57  1  0  0  0  0
 30 58  1  0  0  0  0
 31 59  1  0  0  0  0
M  CHG  1  30   1
M  END
> <SMILES>
COc1ccc(cc1)Nc1nccc2n(c(cc12)-c1ccc(cc1)F)Cc1ccc(cc1)OC(F)(F)F

> <FORMATTED_ID>
H3D-000078

> <MOLFORMULA>
C28H21F4N3O2

> <Exact Mass>
507.16

> <XLogP>
8.5

> <TPSA_NOPS>
48.3

> <s_m_source_file>
ligprep_h3d.sdf

> <i_m_source_file_index>
5772

> <i_lp_mmshare_version>
55123

> <i_f3d_flags>
0

> <s_epik_input>
W0NIM11PYzFbY0hdW2NIXWMoW2NIXVtjSF0xKVtOSF1jKG5bY0hdW2NIXTIpYyhjMjMpW2NIXWMoLWM0W2NIXVtjSF1jKEYpW2NIXVtjSF00KW4zW0NIMl1jNVtjSF1bY0hdYyhbY0hdW2NIXTUpT0MoRikoRilG

> <s_epik_cmdline>
J2VwaWtfcHl0aG9uJywgJy1waHQnLCAnMC41JywgJy1waCcsICc3LjUnLCAnLXRuJywgJzgnLCAnLW1hJywgJzUwMCcsICctaW1hZScsICc8aW5maWxlLm1hZT4nLCAnLW9tYWUnLCAnPG91dGZpbGUubWFlPic=

> <r_lp_tautomer_probability>
1

> <r_epik_Ionization_Penalty>
0.0731031

> <r_epik_Ionization_Penalty_Charging>
0.0727542

> <r_epik_Ionization_Penalty_Neutral>
0.000348925

> <r_epik_State_Penalty>
0.0639511

> <r_epik_Charging_Adjusted_Penalty>
0.136705

> <i_epik_Tot_Q>
1

> <i_epik_Tot_abs_Q>
1

> <s_lp_Force_Field>
S-OPLS

> <r_lp_Energy>
52.6713

> <b_lp_Chiralities_Consistent>
1

> <s_lp_Variant>
ligprep_h3d.sdf:5772-1

> <ROCS_ShapeQuery>
_7L13

> <ROCS_TanimotoCombo>
0.663 

> <ROCS_ShapeTanimoto>
0.597 

> <ROCS_ColorTanimoto>
0.067 

> <ROCS_RefTversky>
0.763 

> <ROCS_RefColorTversky>
0.131 

> <ROCS_RefTverskyCombo>
0.894 

> <ROCS_FitTversky>
0.733 

> <ROCS_FitColorTversky>
0.119 

> <ROCS_FitTverskyCombo>
0.852 

> <ROCS_ColorScore>
-1.190

> <ROCS_Overlap>
1269.370

> <ROCS_Rank>
686                 

$$$$
ligprep_h3d.sdf:1065_455
  -OEChem-08212117123D

 63 69  0     1  0  0  0  0  0999 V2000
  -21.0252   -5.1943  -29.4944 C   0  0  0  0  0  0  0  0  0  0  0  0
  -19.0627   -2.0035  -34.3356 C   0  0  0  0  0  0  0  0  0  0  0  0
  -21.7691   -4.4111  -30.3790 C   0  0  0  0  0  0  0  0  0  0  0  0
  -21.1289   -4.9395  -28.1052 C   0  0  0  0  0  0  0  0  0  0  0  0
  -21.9888   -3.9484  -27.5762 C   0  0  0  0  0  0  0  0  0  0  0  0
  -22.5781   -3.4245  -29.8598 C   0  0  0  0  0  0  0  0  0  0  0  0
  -22.7158   -3.1576  -28.4974 C   0  0  0  0  0  0  0  0  0  0  0  0
  -21.9608   -4.3050  -31.7691 C   0  0  0  0  0  0  0  0  0  0  0  0
  -19.5113   -3.9477  -33.7224 C   0  0  0  0  0  0  0  0  0  0  0  0
  -18.9221   -3.9531  -26.1959 C   0  0  0  0  0  0  0  0  0  0  0  0
  -19.3566   -6.1955  -25.0004 C   0  0  0  0  0  0  0  0  0  0  0  0
  -17.0676   -5.5320  -25.7066 C   0  0  0  0  0  0  0  0  0  0  0  0
  -22.0542   -5.9061  -33.6005 C   0  0  0  0  0  0  0  0  0  0  0  0
  -20.2969   -5.7894  -27.1823 C   0  0  0  0  0  0  0  0  0  0  0  0
  -23.0055   -2.7476  -25.6507 C   0  0  0  0  0  0  0  0  0  0  0  0
  -19.8412   -6.4034  -33.8911 C   0  0  0  0  0  0  0  0  0  0  0  0
  -19.9278   -5.1737  -33.0033 C   0  0  2  0  0  0  0  0  0  0  0  0
  -21.2412   -4.4994  -25.2264 C   0  0  2  0  0  0  0  0  0  0  0  0
  -23.3896   -3.0343  -24.1964 C   0  0  1  0  0  0  0  0  0  0  0  0
  -21.0369   -3.5645  -23.9988 C   0  0  2  0  0  0  0  0  0  0  0  0
  -19.9343   -5.0618  -25.8636 C   0  0  0  0  0  0  0  0  0  0  0  0
  -24.4254   -4.1499  -24.0706 C   0  0  0  0  0  0  0  0  0  0  0  0
  -20.1044   -4.0804  -22.9094 C   0  0  0  0  0  0  0  0  0  0  0  0
  -18.7830   -5.0954  -35.8477 C   0  0  0  0  0  0  0  0  0  0  0  0
  -19.5589   -2.7128  -33.2795 N   0  0  0  0  0  0  0  0  0  0  0  0
  -18.7111   -2.7219  -35.4041 N   0  0  0  0  0  0  0  0  0  0  0  0
  -22.8177   -3.3308  -32.0897 N   0  0  0  0  0  0  0  0  0  0  0  0
  -19.0081   -3.9617  -34.9859 N   0  0  0  0  0  0  0  0  0  0  0  0
  -17.5950   -4.3525  -26.2123 N   0  0  0  0  0  0  0  0  0  0  0  0
  -17.9859   -6.3769  -25.0997 N   0  0  0  0  0  0  0  0  0  0  0  0
  -22.0921   -3.7602  -26.1958 N   0  0  3  0  0  0  0  0  0  0  0  0
  -21.3435   -5.1001  -32.7146 N   0  0  0  0  0  0  0  0  0  0  0  0
  -19.2517   -2.8045  -26.4917 O   0  0  0  0  0  0  0  0  0  0  0  0
  -20.0621   -6.9533  -24.3333 O   0  0  0  0  0  0  0  0  0  0  0  0
  -15.8642   -5.7917  -25.7564 O   0  0  0  0  0  0  0  0  0  0  0  0
  -23.2689   -6.0214  -33.7003 O   0  0  0  0  0  0  0  0  0  0  0  0
  -23.2056   -2.7730  -30.8770 O   0  0  0  0  0  0  0  0  0  0  0  0
  -21.1675   -6.5871  -34.4017 O   0  0  0  0  0  0  0  0  0  0  0  0
  -22.2905   -3.3374  -23.3427 O   0  0  0  0  0  0  0  0  0  0  0  0
  -23.4522   -2.0987  -28.1401 F   0  0  0  0  0  0  0  0  0  0  0  0
  -20.3716   -5.9784  -29.8662 H   0  0  0  0  0  0  0  0  0  0  0  0
  -18.9538   -0.9295  -34.3261 H   0  0  0  0  0  0  0  0  0  0  0  0
  -20.8660   -6.7068  -26.9775 H   0  0  0  0  0  0  0  0  0  0  0  0
  -19.3781   -6.0985  -27.6992 H   0  0  0  0  0  0  0  0  0  0  0  0
  -23.9177   -2.7540  -26.2827 H   0  0  0  0  0  0  0  0  0  0  0  0
  -22.6475   -1.7075  -25.6989 H   0  0  0  0  0  0  0  0  0  0  0  0
  -19.1452   -6.2986  -34.7294 H   0  0  0  0  0  0  0  0  0  0  0  0
  -19.5796   -7.2997  -33.3182 H   0  0  0  0  0  0  0  0  0  0  0  0
  -19.3457   -5.2899  -32.0838 H   0  0  0  0  0  0  0  0  0  0  0  0
  -21.8577   -5.3488  -24.8935 H   0  0  0  0  0  0  0  0  0  0  0  0
  -23.8956   -2.1000  -23.7686 H   0  0  0  0  0  0  0  0  0  0  0  0
  -20.6475   -2.5799  -24.3171 H   0  0  0  0  0  0  0  0  0  0  0  0
  -24.0179   -5.0830  -24.4599 H   0  0  0  0  0  0  0  0  0  0  0  0
  -25.3213   -3.8924  -24.6357 H   0  0  0  0  0  0  0  0  0  0  0  0
  -24.6958   -4.2915  -23.0240 H   0  0  0  0  0  0  0  0  0  0  0  0
  -20.4447   -5.0545  -22.5579 H   0  0  0  0  0  0  0  0  0  0  0  0
  -20.0923   -3.3858  -22.0694 H   0  0  0  0  0  0  0  0  0  0  0  0
  -19.0921   -4.1795  -23.3014 H   0  0  0  0  0  0  0  0  0  0  0  0
  -19.6914   -5.2596  -36.4332 H   0  0  0  0  0  0  0  0  0  0  0  0
  -17.9353   -4.8890  -36.5070 H   0  0  0  0  0  0  0  0  0  0  0  0
  -18.5562   -5.9740  -35.2373 H   0  0  0  0  0  0  0  0  0  0  0  0
  -16.9356   -3.7108  -26.6421 H   0  0  0  0  0  0  0  0  0  0  0  0
  -17.6040   -7.1933  -24.6310 H   0  0  0  0  0  0  0  0  0  0  0  0
  1  3  2  0  0  0  0
  1  4  1  0  0  0  0
  2 25  1  0  0  0  0
  2 26  2  0  0  0  0
  3  6  1  0  0  0  0
  3  8  1  0  0  0  0
  4  5  2  0  0  0  0
  4 14  1  0  0  0  0
  5  7  1  0  0  0  0
  5 31  1  0  0  0  0
  6  7  2  0  0  0  0
  6 37  1  0  0  0  0
  7 40  1  0  0  0  0
  8 27  2  0  0  0  0
  8 32  1  0  0  0  0
  9 17  1  0  0  0  0
  9 25  2  0  0  0  0
  9 28  1  0  0  0  0
 10 21  1  0  0  0  0
 10 29  1  0  0  0  0
 10 33  2  0  0  0  0
 11 21  1  0  0  0  0
 11 30  1  0  0  0  0
 11 34  2  0  0  0  0
 12 29  1  0  0  0  0
 12 30  1  0  0  0  0
 12 35  2  0  0  0  0
 13 32  1  0  0  0  0
 13 36  2  0  0  0  0
 13 38  1  0  0  0  0
 14 21  1  0  0  0  0
 15 19  1  0  0  0  0
 15 31  1  0  0  0  0
 16 17  1  0  0  0  0
 16 38  1  0  0  0  0
 17 32  1  0  0  0  0
 18 20  1  0  0  0  0
 18 21  1  0  0  0  0
 18 31  1  0  0  0  0
 19 22  1  0  0  0  0
 19 39  1  0  0  0  0
 20 23  1  0  0  0  0
 20 39  1  0  0  0  0
 24 28  1  0  0  0  0
 26 28  1  0  0  0  0
 27 37  1  0  0  0  0
  1 41  1  0  0  0  0
  2 42  1  0  0  0  0
 14 43  1  0  0  0  0
 14 44  1  0  0  0  0
 15 45  1  0  0  0  0
 15 46  1  0  0  0  0
 16 47  1  0  0  0  0
 16 48  1  0  0  0  0
 17 49  1  0  0  0  0
 18 50  1  0  0  0  0
 19 51  1  0  0  0  0
 20 52  1  0  0  0  0
 22 53  1  0  0  0  0
 22 54  1  0  0  0  0
 22 55  1  0  0  0  0
 23 56  1  0  0  0  0
 23 57  1  0  0  0  0
 23 58  1  0  0  0  0
 24 59  1  0  0  0  0
 24 60  1  0  0  0  0
 24 61  1  0  0  0  0
 29 62  1  0  0  0  0
 30 63  1  0  0  0  0
M  END
> <SMILES>
C[C@@H]1CN2[C@H]([C@H](C)O1)C1(Cc3cc4c(noc4c(c32)F)N2[C@@H](COC2=O)c2ncnn2C)C(=O)NC(=O)NC1=O

> <FORMATTED_ID>
H3D-006627

> <MOLFORMULA>
C24H23FN8O7

> <Exact Mass>
554.17

> <XLogP>
0.96

> <TPSA_NOPS>
174.3

> <s_m_source_file>
ligprep_h3d.sdf

> <i_m_source_file_index>
1065

> <i_lp_mmshare_version>
55123

> <i_f3d_flags>
0

> <s_epik_input>
Tz1DMVtOSF1DKD1PKVtOSF1DKD1PKUMxMltDQEBIXTNOKFtDSDJdW0NAQEhdKFtDSDNdKU9bQ0BIXTNbQ0gzXSljNGMoW0NIMl0yKVtjSF1jNWMoYzRGKW9uYzVONltDQEBIXShbQ0gyXU9DNj1PKWM3bltjSF1ubjdbQ0gzXQ==

> <s_epik_cmdline>
J2VwaWtfcHl0aG9uJywgJy1waHQnLCAnMC41JywgJy1waCcsICc3LjUnLCAnLXRuJywgJzgnLCAnLW1hJywgJzUwMCcsICctaW1hZScsICc8aW5maWxlLm1hZT4nLCAnLW9tYWUnLCAnPG91dGZpbGUubWFlPic=

> <r_lp_tautomer_probability>
1

> <r_epik_Ionization_Penalty>
0.369131

> <r_epik_Ionization_Penalty_Charging>
0

> <r_epik_Ionization_Penalty_Neutral>
0.369131

> <r_epik_State_Penalty>
0.366447

> <r_epik_Charging_Adjusted_Penalty>
0.366447

> <i_epik_Tot_Q>
0

> <i_epik_Tot_abs_Q>
0

> <s_epik_Chemistry_Notes>
This compound has an ester and may undergo hydrolysis at high or low pH.

> <s_lp_Force_Field>
S-OPLS

> <r_lp_Energy>
40.505

> <b_lp_Chiralities_Consistent>
1

> <s_lp_Variant>
ligprep_h3d.sdf:1065-1

> <ROCS_ShapeQuery>
_7L13

> <ROCS_TanimotoCombo>
0.670 

> <ROCS_ShapeTanimoto>
0.551 

> <ROCS_ColorTanimoto>
0.119 

> <ROCS_RefTversky>
0.762 

> <ROCS_RefColorTversky>
0.295 

> <ROCS_RefTverskyCombo>
1.058 

> <ROCS_FitTversky>
0.665 

> <ROCS_FitColorTversky>
0.167 

> <ROCS_FitTverskyCombo>
0.831 

> <ROCS_ColorScore>
-2.775

> <ROCS_Overlap>
1276.580

> <ROCS_Rank>
687                 

$$$$
ligprep_h3d.sdf:1747_778
  -OEChem-08212117123D

 58 62  0     0  0  0  0  0  0999 V2000
  -22.4095   -3.7770  -33.8113 C   0  0  0  0  0  0  0  0  0  0  0  0
  -22.1821   -3.7906  -32.4352 C   0  0  0  0  0  0  0  0  0  0  0  0
  -19.5295   -4.5234  -30.0005 C   0  0  0  0  0  0  0  0  0  0  0  0
  -25.4293   -5.6525  -24.0316 C   0  0  0  0  0  0  0  0  0  0  0  0
  -24.7158   -3.5492  -23.0808 C   0  0  0  0  0  0  0  0  0  0  0  0
  -19.3045   -4.5365  -28.6234 C   0  0  0  0  0  0  0  0  0  0  0  0
  -24.3916   -5.5845  -24.9611 C   0  0  0  0  0  0  0  0  0  0  0  0
  -23.6779   -3.4812  -24.0103 C   0  0  0  0  0  0  0  0  0  0  0  0
  -21.5203   -4.4211  -34.6716 C   0  0  0  0  0  0  0  0  0  0  0  0
  -21.9071   -4.4168  -29.6070 C   0  0  0  0  0  0  0  0  0  0  0  0
  -20.1760   -5.0922  -32.7796 C   0  0  0  0  0  0  0  0  0  0  0  0
  -20.8308   -4.4623  -30.4917 C   0  0  0  0  0  0  0  0  0  0  0  0
  -21.0653   -4.4481  -31.9193 C   0  0  0  0  0  0  0  0  0  0  0  0
  -21.6746   -4.4306  -28.2260 C   0  0  0  0  0  0  0  0  0  0  0  0
  -25.5915   -4.6348  -23.0915 C   0  0  0  0  0  0  0  0  0  0  0  0
  -20.3765   -4.4905  -27.7237 C   0  0  0  0  0  0  0  0  0  0  0  0
  -23.5158   -4.4988  -24.9504 C   0  0  0  0  0  0  0  0  0  0  0  0
  -20.4035   -5.0786  -34.1558 C   0  0  0  0  0  0  0  0  0  0  0  0
  -22.8022   -4.4112  -27.2746 C   0  0  0  0  0  0  0  0  0  0  0  0
  -21.0878   -4.4307  -25.4918 C   0  0  0  0  0  0  0  0  0  0  0  0
  -20.7347   -8.1469  -34.7100 C   0  0  0  0  0  0  0  0  0  0  0  0
  -19.7920   -7.9331  -36.9726 C   0  0  0  0  0  0  0  0  0  0  0  0
  -19.6660   -9.1896  -34.4174 C   0  0  0  0  0  0  0  0  0  0  0  0
  -18.7617   -8.9848  -36.5885 C   0  0  0  0  0  0  0  0  0  0  0  0
  -26.7012   -4.7077  -22.0977 C   0  0  0  0  0  0  0  0  0  0  0  0
  -20.1040   -4.4805  -26.3533 N   0  0  0  0  0  0  0  0  0  0  0  0
  -22.4437   -4.4284  -25.9101 N   0  0  0  0  0  0  0  0  0  0  0  0
  -20.2444   -7.2041  -35.7545 N   0  0  0  0  0  0  0  0  0  0  0  0
  -20.7599   -4.3239  -24.1578 N   0  0  0  0  0  0  0  0  0  0  0  0
  -23.9445   -4.4383  -27.7268 O   0  0  0  0  0  0  0  0  0  0  0  0
  -19.0369   -5.0127  -36.3696 O   0  0  0  0  0  0  0  0  0  0  0  0
  -18.1767   -6.3977  -34.4488 O   0  0  0  0  0  0  0  0  0  0  0  0
  -19.3060   -9.8809  -35.6162 O   0  0  0  0  0  0  0  0  0  0  0  0
  -27.4781   -5.8239  -22.2254 F   0  0  0  0  0  0  0  0  0  0  0  0
  -26.2736   -4.7181  -20.8005 F   0  0  0  0  0  0  0  0  0  0  0  0
  -27.5603   -3.6512  -22.1915 F   0  0  0  0  0  0  0  0  0  0  0  0
  -19.2921   -5.8866  -35.2332 S   0  0  0  0  0  0  0  0  0  0  0  0
  -23.2793   -3.2653  -34.2130 H   0  0  0  0  0  0  0  0  0  0  0  0
  -22.8843   -3.2835  -31.7777 H   0  0  0  0  0  0  0  0  0  0  0  0
  -18.6781   -4.5593  -30.6761 H   0  0  0  0  0  0  0  0  0  0  0  0
  -26.1083   -6.5010  -24.0486 H   0  0  0  0  0  0  0  0  0  0  0  0
  -24.8352   -2.7515  -22.3524 H   0  0  0  0  0  0  0  0  0  0  0  0
  -18.2824   -4.5792  -28.2539 H   0  0  0  0  0  0  0  0  0  0  0  0
  -24.2744   -6.3834  -25.6890 H   0  0  0  0  0  0  0  0  0  0  0  0
  -23.0018   -2.6300  -23.9938 H   0  0  0  0  0  0  0  0  0  0  0  0
  -21.7066   -4.4044  -35.7419 H   0  0  0  0  0  0  0  0  0  0  0  0
  -22.9226   -4.3741  -29.9946 H   0  0  0  0  0  0  0  0  0  0  0  0
  -19.3030   -5.6061  -32.3827 H   0  0  0  0  0  0  0  0  0  0  0  0
  -21.6536   -8.6326  -35.0718 H   0  0  0  0  0  0  0  0  0  0  0  0
  -20.9702   -7.5936  -33.7901 H   0  0  0  0  0  0  0  0  0  0  0  0
  -19.3470   -7.2256  -37.6861 H   0  0  0  0  0  0  0  0  0  0  0  0
  -20.6638   -8.4081  -37.4477 H   0  0  0  0  0  0  0  0  0  0  0  0
  -18.7697   -8.7360  -33.9778 H   0  0  0  0  0  0  0  0  0  0  0  0
  -20.0487   -9.9294  -33.7074 H   0  0  0  0  0  0  0  0  0  0  0  0
  -18.4831   -9.5747  -37.4672 H   0  0  0  0  0  0  0  0  0  0  0  0
  -17.8487   -8.5278  -36.1886 H   0  0  0  0  0  0  0  0  0  0  0  0
  -19.7996   -4.2901  -23.9170 H   0  0  0  0  0  0  0  0  0  0  0  0
  -21.4991   -4.2856  -23.4994 H   0  0  0  0  0  0  0  0  0  0  0  0
  1  2  1  0  0  0  0
  1  9  2  0  0  0  0
  2 13  2  0  0  0  0
  3  6  1  0  0  0  0
  3 12  2  0  0  0  0
  4  7  1  0  0  0  0
  4 15  2  0  0  0  0
  5  8  2  0  0  0  0
  5 15  1  0  0  0  0
  6 16  2  0  0  0  0
  7 17  2  0  0  0  0
  8 17  1  0  0  0  0
  9 18  1  0  0  0  0
 10 12  1  0  0  0  0
 10 14  2  0  0  0  0
 11 13  1  0  0  0  0
 11 18  2  0  0  0  0
 12 13  1  0  0  0  0
 14 16  1  0  0  0  0
 14 19  1  0  0  0  0
 15 25  1  0  0  0  0
 16 26  1  0  0  0  0
 17 27  1  0  0  0  0
 18 37  1  0  0  0  0
 19 27  1  0  0  0  0
 19 30  2  0  0  0  0
 20 26  2  0  0  0  0
 20 27  1  0  0  0  0
 20 29  1  0  0  0  0
 21 23  1  0  0  0  0
 21 28  1  0  0  0  0
 22 24  1  0  0  0  0
 22 28  1  0  0  0  0
 23 33  1  0  0  0  0
 24 33  1  0  0  0  0
 25 34  1  0  0  0  0
 25 35  1  0  0  0  0
 25 36  1  0  0  0  0
 28 37  1  0  0  0  0
 31 37  2  0  0  0  0
 32 37  2  0  0  0  0
  1 38  1  0  0  0  0
  2 39  1  0  0  0  0
  3 40  1  0  0  0  0
  4 41  1  0  0  0  0
  5 42  1  0  0  0  0
  6 43  1  0  0  0  0
  7 44  1  0  0  0  0
  8 45  1  0  0  0  0
  9 46  1  0  0  0  0
 10 47  1  0  0  0  0
 11 48  1  0  0  0  0
 21 49  1  0  0  0  0
 21 50  1  0  0  0  0
 22 51  1  0  0  0  0
 22 52  1  0  0  0  0
 23 53  1  0  0  0  0
 23 54  1  0  0  0  0
 24 55  1  0  0  0  0
 24 56  1  0  0  0  0
 29 57  1  0  0  0  0
 29 58  1  0  0  0  0
M  END
> <SMILES>
NC1=Nc2ccc(cc2C(=O)N1c1ccc(cc1)C(F)(F)F)-c1cccc(c1)S(=O)(=O)N1CCOCC1

> <FORMATTED_ID>
H3D-002795

> <MOLFORMULA>
C25H21F3N4O4S

> <Exact Mass>
530.12

> <XLogP>
3.82

> <TPSA_NOPS>
113.7

> <s_m_source_file>
ligprep_h3d.sdf

> <i_m_source_file_index>
1747

> <i_lp_mmshare_version>
55123

> <i_f3d_flags>
0

> <s_epik_input>
W2NIXTFbY0hdYyhDKEYpKEYpRilbY0hdW2NIXWMxLW4oYyhuMilbTkgyXSljKD1PKWMoYzIzKVtjSF1jKFtjSF1bY0hdMyktYzRbY0hdW2NIXVtjSF1jKFtjSF00KVMoPU8pKD1PKU41W0NIMl1bQ0gyXU9bQ0gyXVtDSDJdNQ==

> <s_epik_cmdline>
J2VwaWtfcHl0aG9uJywgJy1waHQnLCAnMC41JywgJy1waCcsICc3LjUnLCAnLXRuJywgJzgnLCAnLW1hJywgJzUwMCcsICctaW1hZScsICc8aW5maWxlLm1hZT4nLCAnLW9tYWUnLCAnPG91dGZpbGUubWFlPic=

> <r_lp_tautomer_probability>
1

> <r_epik_Ionization_Penalty>
3.61852e-06

> <r_epik_Ionization_Penalty_Charging>
3.91892e-10

> <r_epik_Ionization_Penalty_Neutral>
3.61813e-06

> <r_epik_State_Penalty>
-0

> <r_epik_Charging_Adjusted_Penalty>
3.91892e-10

> <i_epik_Tot_Q>
0

> <i_epik_Tot_abs_Q>
0

> <s_lp_Force_Field>
S-OPLS

> <r_lp_Energy>
63.9746

> <b_lp_Chiralities_Consistent>
1

> <s_lp_Variant>
ligprep_h3d.sdf:1747-1

> <ROCS_ShapeQuery>
_7L13

> <ROCS_TanimotoCombo>
0.710 

> <ROCS_ShapeTanimoto>
0.604 

> <ROCS_ColorTanimoto>
0.106 

> <ROCS_RefTversky>
0.762 

> <ROCS_RefColorTversky>
0.220 

> <ROCS_RefTverskyCombo>
0.983 

> <ROCS_FitTversky>
0.744 

> <ROCS_FitColorTversky>
0.170 

> <ROCS_FitTverskyCombo>
0.914 

> <ROCS_ColorScore>
-2.017

> <ROCS_Overlap>
1267.836

> <ROCS_Rank>
688                 

$$$$
ligprep_h3d.sdf:1000_1924
  -OEChem-08212117123D

 65 69  0     0  0  0  0  0  0999 V2000
  -16.6449   -5.1981  -26.3230 C   0  0  0  0  0  0  0  0  0  0  0  0
  -23.2320   -3.8888  -27.6123 C   0  0  0  0  0  0  0  0  0  0  0  0
  -20.4596   -4.2726  -24.5403 C   0  0  0  0  0  0  0  0  0  0  0  0
  -17.2210   -6.4591  -26.0782 C   0  0  0  0  0  0  0  0  0  0  0  0
  -18.9765   -7.0015  -34.7683 C   0  0  0  0  0  0  0  0  0  0  0  0
  -21.0245   -4.4947  -26.8805 C   0  0  0  0  0  0  0  0  0  0  0  0
  -22.9010   -4.2291  -28.9263 C   0  0  0  0  0  0  0  0  0  0  0  0
  -20.6913   -4.8369  -28.2021 C   0  0  0  0  0  0  0  0  0  0  0  0
  -22.3139   -4.0122  -26.5731 C   0  0  0  0  0  0  0  0  0  0  0  0
  -20.0998   -4.6189  -25.8348 C   0  0  0  0  0  0  0  0  0  0  0  0
  -21.6291   -4.7038  -29.2219 C   0  0  0  0  0  0  0  0  0  0  0  0
  -19.8795   -6.0027  -34.5041 C   0  0  0  0  0  0  0  0  0  0  0  0
  -17.6995   -4.3205  -26.2584 C   0  0  0  0  0  0  0  0  0  0  0  0
  -21.7440   -3.8101  -24.3371 C   0  0  0  0  0  0  0  0  0  0  0  0
  -20.4793   -4.2895  -32.7374 C   0  0  0  0  0  0  0  0  0  0  0  0
  -20.6208   -6.7353  -32.1959 C   0  0  0  0  0  0  0  0  0  0  0  0
  -21.3957   -3.9822  -31.5534 C   0  0  0  0  0  0  0  0  0  0  0  0
  -21.5312   -6.4144  -31.0096 C   0  0  0  0  0  0  0  0  0  0  0  0
  -20.7603   -5.6871  -33.3098 C   0  0  0  0  0  0  0  0  0  0  0  0
  -23.9374   -4.0697  -29.9913 C   0  0  0  0  0  0  0  0  0  0  0  0
  -19.3414   -5.3568  -28.6059 C   0  0  0  0  0  0  0  0  0  0  0  0
  -17.7402   -2.8548  -26.4282 C   0  0  0  0  0  0  0  0  0  0  0  0
  -24.3993   -4.1623  -22.6523 C   0  0  0  0  0  0  0  0  0  0  0  0
  -25.8382   -3.7122  -22.4601 C   0  0  0  0  0  0  0  0  0  0  0  0
  -23.4663   -2.9910  -22.9164 C   0  0  0  0  0  0  0  0  0  0  0  0
  -18.4469   -6.8238  -36.0163 N   0  0  0  0  0  0  0  0  0  0  0  0
  -18.5391   -6.3928  -25.8732 N   0  0  0  0  0  0  0  0  0  0  0  0
  -22.6659   -3.6754  -25.3178 N   0  0  0  0  0  0  0  0  0  0  0  0
  -18.9968   -5.7345  -36.5417 N   0  0  0  0  0  0  0  0  0  0  0  0
  -19.8553   -5.2435  -35.6334 N   0  0  0  0  0  0  0  0  0  0  0  0
  -18.8002   -5.0796  -25.9890 N   0  0  0  0  0  0  0  0  0  0  0  0
  -21.3034   -5.0431  -30.5407 N   0  0  0  0  0  0  0  0  0  0  0  0
  -26.6461   -4.8527  -22.2043 O   0  0  0  0  0  0  0  0  0  0  0  0
  -22.1325   -3.4613  -23.0702 O   0  0  0  0  0  0  0  0  0  0  0  0
  -15.6094   -4.9609  -26.5184 H   0  0  0  0  0  0  0  0  0  0  0  0
  -24.2330   -3.5176  -27.3964 H   0  0  0  0  0  0  0  0  0  0  0  0
  -19.7663   -4.3599  -23.7091 H   0  0  0  0  0  0  0  0  0  0  0  0
  -16.7350   -7.4234  -26.0405 H   0  0  0  0  0  0  0  0  0  0  0  0
  -18.6841   -7.8275  -34.1375 H   0  0  0  0  0  0  0  0  0  0  0  0
  -20.6244   -3.5281  -33.5141 H   0  0  0  0  0  0  0  0  0  0  0  0
  -19.4312   -4.2105  -32.4177 H   0  0  0  0  0  0  0  0  0  0  0  0
  -19.5793   -6.7892  -31.8506 H   0  0  0  0  0  0  0  0  0  0  0  0
  -20.8699   -7.7315  -32.5830 H   0  0  0  0  0  0  0  0  0  0  0  0
  -21.1051   -3.0120  -31.1237 H   0  0  0  0  0  0  0  0  0  0  0  0
  -22.4367   -3.8860  -31.8983 H   0  0  0  0  0  0  0  0  0  0  0  0
  -22.5853   -6.5382  -31.3019 H   0  0  0  0  0  0  0  0  0  0  0  0
  -21.3308   -7.1370  -30.2045 H   0  0  0  0  0  0  0  0  0  0  0  0
  -21.8128   -5.7082  -33.6786 H   0  0  0  0  0  0  0  0  0  0  0  0
  -23.8792   -3.0671  -30.4295 H   0  0  0  0  0  0  0  0  0  0  0  0
  -23.8012   -4.8095  -30.7892 H   0  0  0  0  0  0  0  0  0  0  0  0
  -24.9459   -4.2174  -29.5865 H   0  0  0  0  0  0  0  0  0  0  0  0
  -19.3277   -6.4479  -28.5372 H   0  0  0  0  0  0  0  0  0  0  0  0
  -19.1027   -5.0612  -29.6317 H   0  0  0  0  0  0  0  0  0  0  0  0
  -18.5591   -4.9491  -27.9586 H   0  0  0  0  0  0  0  0  0  0  0  0
  -17.9138   -2.5816  -27.4819 H   0  0  0  0  0  0  0  0  0  0  0  0
  -18.5394   -2.3905  -25.8255 H   0  0  0  0  0  0  0  0  0  0  0  0
  -16.7995   -2.3750  -26.1081 H   0  0  0  0  0  0  0  0  0  0  0  0
  -24.0593   -4.7215  -21.7713 H   0  0  0  0  0  0  0  0  0  0  0  0
  -24.3402   -4.8844  -23.4768 H   0  0  0  0  0  0  0  0  0  0  0  0
  -25.9232   -3.0276  -21.6102 H   0  0  0  0  0  0  0  0  0  0  0  0
  -26.2146   -3.2132  -23.3588 H   0  0  0  0  0  0  0  0  0  0  0  0
  -23.4803   -2.2853  -22.0801 H   0  0  0  0  0  0  0  0  0  0  0  0
  -23.7510   -2.4516  -23.8255 H   0  0  0  0  0  0  0  0  0  0  0  0
  -20.3799   -4.4053  -35.8536 H   0  0  0  0  0  0  0  0  0  0  0  0
  -27.5550   -4.5320  -22.0867 H   0  0  0  0  0  0  0  0  0  0  0  0
  1  4  1  0  0  0  0
  1 13  2  0  0  0  0
  2  7  2  0  0  0  0
  2  9  1  0  0  0  0
  3 10  1  0  0  0  0
  3 14  2  0  0  0  0
  4 27  2  0  0  0  0
  5 12  2  0  0  0  0
  5 26  1  0  0  0  0
  6  8  1  0  0  0  0
  6  9  1  0  0  0  0
  6 10  2  0  0  0  0
  7 11  1  0  0  0  0
  7 20  1  0  0  0  0
  8 11  2  0  0  0  0
  8 21  1  0  0  0  0
  9 28  2  0  0  0  0
 10 31  1  0  0  0  0
 11 32  1  0  0  0  0
 12 19  1  0  0  0  0
 12 30  1  0  0  0  0
 13 22  1  0  0  0  0
 13 31  1  0  0  0  0
 14 28  1  0  0  0  0
 14 34  1  0  0  0  0
 15 17  1  0  0  0  0
 15 19  1  0  0  0  0
 16 18  1  0  0  0  0
 16 19  1  0  0  0  0
 17 32  1  0  0  0  0
 18 32  1  0  0  0  0
 23 24  1  0  0  0  0
 23 25  1  0  0  0  0
 24 33  1  0  0  0  0
 25 34  1  0  0  0  0
 26 29  2  0  0  0  0
 27 31  1  0  0  0  0
 29 30  1  0  0  0  0
  1 35  1  0  0  0  0
  2 36  1  0  0  0  0
  3 37  1  0  0  0  0
  4 38  1  0  0  0  0
  5 39  1  0  0  0  0
 15 40  1  0  0  0  0
 15 41  1  0  0  0  0
 16 42  1  0  0  0  0
 16 43  1  0  0  0  0
 17 44  1  0  0  0  0
 17 45  1  0  0  0  0
 18 46  1  0  0  0  0
 18 47  1  0  0  0  0
 19 48  1  0  0  0  0
 20 49  1  0  0  0  0
 20 50  1  0  0  0  0
 20 51  1  0  0  0  0
 21 52  1  0  0  0  0
 21 53  1  0  0  0  0
 21 54  1  0  0  0  0
 22 55  1  0  0  0  0
 22 56  1  0  0  0  0
 22 57  1  0  0  0  0
 23 58  1  0  0  0  0
 23 59  1  0  0  0  0
 24 60  1  0  0  0  0
 24 61  1  0  0  0  0
 25 62  1  0  0  0  0
 25 63  1  0  0  0  0
 30 64  1  0  0  0  0
 33 65  1  0  0  0  0
M  END
> <SMILES>
Cc1cc2nc(cc(c2c(c1N1CCC(CC1)c1cnn[nH]1)C)-n1nccc1C)OCCCO

> <FORMATTED_ID>
H3D-006146

> <MOLFORMULA>
C25H31N7O2

> <Exact Mass>
461.25

> <XLogP>
3.57

> <TPSA_NOPS>
105

> <s_m_source_file>
ligprep_h3d.sdf

> <i_m_source_file_index>
1000

> <i_lp_mmshare_version>
55123

> <i_f3d_flags>
0

> <s_epik_input>
W25IXTFubltjSF1jMVtDSF0oW0NIMl1bQ0gyXTIpW0NIMl1bQ0gyXU4yYyhjKFtDSDNdKVtjSF0zKWMoW0NIM10pYyhjMzQpYygtbjVuW2NIXVtjSF1jNVtDSDNdKVtjSF1jKG40KU9bQ0gyXVtDSDJdW0NIMl1bT0hd

> <s_epik_cmdline>
J2VwaWtfcHl0aG9uJywgJy1waHQnLCAnMC41JywgJy1waCcsICc3LjUnLCAnLXRuJywgJzgnLCAnLW1hJywgJzUwMCcsICctaW1hZScsICc8aW5maWxlLm1hZT4nLCAnLW9tYWUnLCAnPG91dGZpbGUubWFlPic=

> <r_lp_tautomer_probability>
0.173826

> <r_epik_Ionization_Penalty>
0.000678316

> <r_epik_Ionization_Penalty_Charging>
0

> <r_epik_Ionization_Penalty_Neutral>
0.000678316

> <r_epik_State_Penalty>
0.41068

> <r_epik_Charging_Adjusted_Penalty>
0.41068

> <i_epik_Tot_Q>
0

> <i_epik_Tot_abs_Q>
0

> <s_lp_Force_Field>
S-OPLS

> <r_lp_Energy>
55.6882

> <b_lp_Chiralities_Consistent>
1

> <s_lp_Variant>
ligprep_h3d.sdf:1000-1

> <ROCS_ShapeQuery>
_7L13

> <ROCS_TanimotoCombo>
0.759 

> <ROCS_ShapeTanimoto>
0.639 

> <ROCS_ColorTanimoto>
0.120 

> <ROCS_RefTversky>
0.762 

> <ROCS_RefColorTversky>
0.259 

> <ROCS_RefTverskyCombo>
1.022 

> <ROCS_FitTversky>
0.798 

> <ROCS_FitColorTversky>
0.182 

> <ROCS_FitTverskyCombo>
0.980 

> <ROCS_ColorScore>
-2.390

> <ROCS_Overlap>
1262.903

> <ROCS_Rank>
689                 

$$$$
ligprep_h3d.sdf:5504_1459
  -OEChem-08212117123D

 60 64  0     0  0  0  0  0  0999 V2000
  -25.7257   -4.9804  -23.2721 C   0  0  0  0  0  0  0  0  0  0  0  0
  -24.7237   -4.2747  -22.6021 C   0  0  0  0  0  0  0  0  0  0  0  0
  -18.7932   -7.9324  -35.2995 C   0  0  0  0  0  0  0  0  0  0  0  0
  -19.0162   -6.2648  -25.8300 C   0  0  0  0  0  0  0  0  0  0  0  0
  -17.7747   -4.2824  -26.4347 C   0  0  0  0  0  0  0  0  0  0  0  0
  -20.1210   -5.4755  -25.5106 C   0  0  0  0  0  0  0  0  0  0  0  0
  -18.8795   -3.4931  -26.1153 C   0  0  0  0  0  0  0  0  0  0  0  0
  -25.6000   -5.2968  -24.6307 C   0  0  0  0  0  0  0  0  0  0  0  0
  -23.5623   -3.8602  -23.2624 C   0  0  0  0  0  0  0  0  0  0  0  0
  -19.5928   -7.6388  -34.1574 C   0  0  0  0  0  0  0  0  0  0  0  0
  -19.0272   -7.0542  -36.3347 C   0  0  0  0  0  0  0  0  0  0  0  0
  -17.8430   -5.6683  -26.2920 C   0  0  0  0  0  0  0  0  0  0  0  0
  -20.0527   -4.0896  -25.6533 C   0  0  0  0  0  0  0  0  0  0  0  0
  -24.4399   -4.8880  -25.3098 C   0  0  0  0  0  0  0  0  0  0  0  0
  -23.4587   -4.1863  -24.6150 C   0  0  0  0  0  0  0  0  0  0  0  0
  -20.4076   -6.5471  -34.3631 C   0  0  0  0  0  0  0  0  0  0  0  0
  -22.8986   -4.4915  -26.7334 C   0  0  0  0  0  0  0  0  0  0  0  0
  -21.2328   -4.4115  -31.4454 C   0  0  0  0  0  0  0  0  0  0  0  0
  -20.3136   -5.3247  -29.3048 C   0  0  0  0  0  0  0  0  0  0  0  0
  -20.9762   -2.8982  -29.4856 C   0  0  0  0  0  0  0  0  0  0  0  0
  -21.5991   -5.6040  -28.5233 C   0  0  0  0  0  0  0  0  0  0  0  0
  -22.2649   -3.2124  -28.7262 C   0  0  0  0  0  0  0  0  0  0  0  0
  -20.4129   -4.1101  -30.2252 C   0  0  0  0  0  0  0  0  0  0  0  0
  -16.6615   -6.5114  -26.6341 C   0  0  0  0  0  0  0  0  0  0  0  0
  -21.2455   -3.2389  -25.3101 C   0  0  0  0  0  0  0  0  0  0  0  0
  -21.3891   -5.9219  -33.4144 C   0  0  0  0  0  0  0  0  0  0  0  0
  -24.0743   -5.0683  -26.6241 N   0  0  0  0  0  0  0  0  0  0  0  0
  -22.4849   -3.9458  -25.5501 N   0  0  0  0  0  0  0  0  0  0  0  0
  -22.0805   -4.3865  -27.8646 N   0  0  0  0  0  0  0  0  0  0  0  0
  -20.7515   -5.4637  -32.2009 N   0  0  0  0  0  0  0  0  0  0  0  0
  -22.2300   -3.7404  -31.6842 O   0  0  0  0  0  0  0  0  0  0  0  0
  -20.2069   -5.8815  -35.9280 S   0  0  0  0  0  0  0  0  0  0  0  0
  -26.6169   -5.2891  -22.7316 H   0  0  0  0  0  0  0  0  0  0  0  0
  -24.8477   -4.0432  -21.5471 H   0  0  0  0  0  0  0  0  0  0  0  0
  -18.0816   -8.7455  -35.3593 H   0  0  0  0  0  0  0  0  0  0  0  0
  -19.0784   -7.3438  -25.7155 H   0  0  0  0  0  0  0  0  0  0  0  0
  -16.8649   -3.8095  -26.7954 H   0  0  0  0  0  0  0  0  0  0  0  0
  -21.0313   -5.9492  -25.1531 H   0  0  0  0  0  0  0  0  0  0  0  0
  -18.8179   -2.4140  -26.2294 H   0  0  0  0  0  0  0  0  0  0  0  0
  -26.3841   -5.8454  -25.1425 H   0  0  0  0  0  0  0  0  0  0  0  0
  -22.7851   -3.3128  -22.7411 H   0  0  0  0  0  0  0  0  0  0  0  0
  -19.5669   -8.2021  -33.2332 H   0  0  0  0  0  0  0  0  0  0  0  0
  -18.5622   -7.0454  -37.3104 H   0  0  0  0  0  0  0  0  0  0  0  0
  -19.4990   -5.1584  -28.5876 H   0  0  0  0  0  0  0  0  0  0  0  0
  -20.0452   -6.2193  -29.8803 H   0  0  0  0  0  0  0  0  0  0  0  0
  -21.1676   -2.0792  -30.1898 H   0  0  0  0  0  0  0  0  0  0  0  0
  -20.2253   -2.5337  -28.7728 H   0  0  0  0  0  0  0  0  0  0  0  0
  -22.3756   -5.9864  -29.1977 H   0  0  0  0  0  0  0  0  0  0  0  0
  -21.3966   -6.3887  -27.7834 H   0  0  0  0  0  0  0  0  0  0  0  0
  -22.5372   -2.3357  -28.1247 H   0  0  0  0  0  0  0  0  0  0  0  0
  -23.0917   -3.3934  -29.4236 H   0  0  0  0  0  0  0  0  0  0  0  0
  -19.4112   -3.8594  -30.5943 H   0  0  0  0  0  0  0  0  0  0  0  0
  -16.6977   -6.8100  -27.6890 H   0  0  0  0  0  0  0  0  0  0  0  0
  -15.7220   -5.9717  -26.4574 H   0  0  0  0  0  0  0  0  0  0  0  0
  -16.6272   -7.4187  -26.0167 H   0  0  0  0  0  0  0  0  0  0  0  0
  -21.2236   -2.9325  -24.2572 H   0  0  0  0  0  0  0  0  0  0  0  0
  -21.2573   -2.3158  -25.9024 H   0  0  0  0  0  0  0  0  0  0  0  0
  -21.8833   -5.0627  -33.8809 H   0  0  0  0  0  0  0  0  0  0  0  0
  -22.1719   -6.6341  -33.1329 H   0  0  0  0  0  0  0  0  0  0  0  0
  -19.9095   -5.9377  -31.8885 H   0  0  0  0  0  0  0  0  0  0  0  0
  1  2  2  0  0  0  0
  1  8  1  0  0  0  0
  2  9  1  0  0  0  0
  3 10  1  0  0  0  0
  3 11  2  0  0  0  0
  4  6  1  0  0  0  0
  4 12  2  0  0  0  0
  5  7  2  0  0  0  0
  5 12  1  0  0  0  0
  6 13  2  0  0  0  0
  7 13  1  0  0  0  0
  8 14  2  0  0  0  0
  9 15  2  0  0  0  0
 10 16  2  0  0  0  0
 11 32  1  0  0  0  0
 12 24  1  0  0  0  0
 13 25  1  0  0  0  0
 14 15  1  0  0  0  0
 14 27  1  0  0  0  0
 15 28  1  0  0  0  0
 16 26  1  0  0  0  0
 16 32  1  0  0  0  0
 17 27  2  0  0  0  0
 17 28  1  0  0  0  0
 17 29  1  0  0  0  0
 18 23  1  0  0  0  0
 18 30  1  0  0  0  0
 18 31  2  0  0  0  0
 19 21  1  0  0  0  0
 19 23  1  0  0  0  0
 20 22  1  0  0  0  0
 20 23  1  0  0  0  0
 21 29  1  0  0  0  0
 22 29  1  0  0  0  0
 25 28  1  0  0  0  0
 26 30  1  0  0  0  0
  1 33  1  0  0  0  0
  2 34  1  0  0  0  0
  3 35  1  0  0  0  0
  4 36  1  0  0  0  0
  5 37  1  0  0  0  0
  6 38  1  0  0  0  0
  7 39  1  0  0  0  0
  8 40  1  0  0  0  0
  9 41  1  0  0  0  0
 10 42  1  0  0  0  0
 11 43  1  0  0  0  0
 19 44  1  0  0  0  0
 19 45  1  0  0  0  0
 20 46  1  0  0  0  0
 20 47  1  0  0  0  0
 21 48  1  0  0  0  0
 21 49  1  0  0  0  0
 22 50  1  0  0  0  0
 22 51  1  0  0  0  0
 23 52  1  0  0  0  0
 24 53  1  0  0  0  0
 24 54  1  0  0  0  0
 24 55  1  0  0  0  0
 25 56  1  0  0  0  0
 25 57  1  0  0  0  0
 26 58  1  0  0  0  0
 26 59  1  0  0  0  0
 30 60  1  0  0  0  0
M  END
> <SMILES>
Cc1ccc(cc1)Cn1c(nc2ccccc12)N1CCC(CC1)C(=O)NCc1cccs1

> <FORMATTED_ID>
H3D-003774

> <MOLFORMULA>
C26H28N4OS

> <Exact Mass>
444.2

> <XLogP>
6.72

> <TPSA_NOPS>
78.4

> <s_m_source_file>
ligprep_h3d.sdf

> <i_m_source_file_index>
5504

> <i_lp_mmshare_version>
55123

> <i_f3d_flags>
0

> <s_epik_input>
W0NIM11jMVtjSF1bY0hdYyhbY0hdW2NIXTEpW0NIMl1uKGMoYzIzKVtjSF1bY0hdW2NIXVtjSF0zKWMobjIpTjRbQ0gyXVtDSDJdW0NIXShbQ0gyXVtDSDJdNClDKD1PKVtOSF1bQ0gyXWM1W2NIXVtjSF1bY0hdczU=

> <s_epik_cmdline>
J2VwaWtfcHl0aG9uJywgJy1waHQnLCAnMC41JywgJy1waCcsICc3LjUnLCAnLXRuJywgJzgnLCAnLW1hJywgJzUwMCcsICctaW1hZScsICc8aW5maWxlLm1hZT4nLCAnLW9tYWUnLCAnPG91dGZpbGUubWFlPic=

> <r_epik_Ionization_Penalty>
0.611597

> <r_epik_Ionization_Penalty_Charging>
0

> <r_epik_Ionization_Penalty_Neutral>
0.611597

> <r_epik_State_Penalty>
0.626844

> <r_epik_Charging_Adjusted_Penalty>
0.626844

> <i_epik_Tot_Q>
0

> <i_epik_Tot_abs_Q>
0

> <s_lp_Force_Field>
S-OPLS

> <r_lp_Energy>
34.1465

> <b_lp_Chiralities_Consistent>
1

> <s_lp_Variant>
ligprep_h3d.sdf:5504-2

> <ROCS_ShapeQuery>
_7L13

> <ROCS_TanimotoCombo>
0.741 

> <ROCS_ShapeTanimoto>
0.677 

> <ROCS_ColorTanimoto>
0.064 

> <ROCS_RefTversky>
0.762 

> <ROCS_RefColorTversky>
0.115 

> <ROCS_RefTverskyCombo>
0.877 

> <ROCS_FitTversky>
0.858 

> <ROCS_FitColorTversky>
0.127 

> <ROCS_FitTverskyCombo>
0.986 

> <ROCS_ColorScore>
-1.029

> <ROCS_Overlap>
1258.253

> <ROCS_Rank>
690                 

$$$$
ligprep_h3d.sdf:5418_304
  -OEChem-08212117123D

 62 67  0     1  0  0  0  0  0999 V2000
  -19.5497   -7.0878  -33.7948 C   0  0  0  0  0  0  0  0  0  0  0  0
  -19.6732   -4.6922  -34.0824 C   0  0  0  0  0  0  0  0  0  0  0  0
  -19.5592   -7.2546  -35.1796 C   0  0  0  0  0  0  0  0  0  0  0  0
  -19.6826   -4.8589  -35.4673 C   0  0  0  0  0  0  0  0  0  0  0  0
  -22.9502   -4.2322  -28.8713 C   0  0  0  0  0  0  0  0  0  0  0  0
  -20.1563   -4.5459  -29.0518 C   0  0  0  0  0  0  0  0  0  0  0  0
  -14.4591   -3.9455  -25.9250 C   0  0  0  0  0  0  0  0  0  0  0  0
  -14.8751   -5.1289  -25.3619 C   0  0  0  0  0  0  0  0  0  0  0  0
  -22.1706   -4.3641  -27.7297 C   0  0  0  0  0  0  0  0  0  0  0  0
  -19.6068   -5.8066  -33.2462 C   0  0  0  0  0  0  0  0  0  0  0  0
  -20.7810   -4.5230  -27.8100 C   0  0  0  0  0  0  0  0  0  0  0  0
  -22.3231   -4.2641  -30.1162 C   0  0  0  0  0  0  0  0  0  0  0  0
  -20.9345   -4.4186  -30.2058 C   0  0  0  0  0  0  0  0  0  0  0  0
  -19.6256   -6.1401  -36.0159 C   0  0  0  0  0  0  0  0  0  0  0  0
  -16.5702   -4.0097  -26.2530 C   0  0  0  0  0  0  0  0  0  0  0  0
  -17.9452   -3.8312  -26.5853 C   0  0  0  0  0  0  0  0  0  0  0  0
  -18.4447   -5.9674  -25.5241 C   0  0  0  0  0  0  0  0  0  0  0  0
  -17.1518   -6.1436  -25.2079 C   0  0  0  0  0  0  0  0  0  0  0  0
  -18.8680   -4.7615  -26.2445 C   0  0  0  0  0  0  0  0  0  0  0  0
  -23.7819   -5.2021  -25.9192 C   0  0  0  0  0  0  0  0  0  0  0  0
  -21.2827   -4.7349  -25.5651 C   0  0  0  0  0  0  0  0  0  0  0  0
  -24.2343   -4.6698  -24.5682 C   0  0  0  0  0  0  0  0  0  0  0  0
  -23.0859   -2.9369  -25.8618 C   0  0  0  0  0  0  0  0  0  0  0  0
  -22.5948   -4.3167  -26.2937 C   0  0  1  0  0  0  0  0  0  0  0  0
  -24.9192   -2.2511  -24.2721 C   0  0  0  0  0  0  0  0  0  0  0  0
  -23.2927   -2.8340  -31.7504 C   0  0  0  0  0  0  0  0  0  0  0  0
  -19.5959   -5.6264  -31.7566 C   0  0  0  0  0  0  0  0  0  0  0  0
  -15.5112   -3.2578  -26.4745 N   0  0  0  0  0  0  0  0  0  0  0  0
  -16.2294   -5.1713  -25.5715 N   0  0  0  0  0  0  0  0  0  0  0  0
  -20.1859   -4.6393  -26.5371 N   0  0  0  0  0  0  0  0  0  0  0  0
  -23.8103   -3.2123  -24.5581 N   0  3  1  0  0  0  0  0  0  0  0  0
  -23.0772   -4.1501  -31.2460 O   0  0  0  0  0  0  0  0  0  0  0  0
  -20.3246   -4.4468  -31.4252 O   0  0  0  0  0  0  0  0  0  0  0  0
  -19.6320   -6.3000  -37.3458 F   0  0  0  0  0  0  0  0  0  0  0  0
  -19.4986   -7.9622  -33.1514 H   0  0  0  0  0  0  0  0  0  0  0  0
  -19.7176   -3.6900  -33.6640 H   0  0  0  0  0  0  0  0  0  0  0  0
  -19.5141   -8.2518  -35.6068 H   0  0  0  0  0  0  0  0  0  0  0  0
  -19.7347   -3.9916  -36.1186 H   0  0  0  0  0  0  0  0  0  0  0  0
  -24.0270   -4.1159  -28.8003 H   0  0  0  0  0  0  0  0  0  0  0  0
  -19.0799   -4.6534  -29.1411 H   0  0  0  0  0  0  0  0  0  0  0  0
  -13.4530   -3.5540  -25.9622 H   0  0  0  0  0  0  0  0  0  0  0  0
  -14.3434   -5.9182  -24.8484 H   0  0  0  0  0  0  0  0  0  0  0  0
  -18.2323   -2.9297  -27.1179 H   0  0  0  0  0  0  0  0  0  0  0  0
  -19.1862   -6.7111  -25.2525 H   0  0  0  0  0  0  0  0  0  0  0  0
  -16.7905   -7.0164  -24.6777 H   0  0  0  0  0  0  0  0  0  0  0  0
  -23.5290   -6.2654  -25.8741 H   0  0  0  0  0  0  0  0  0  0  0  0
  -24.5990   -5.0906  -26.6419 H   0  0  0  0  0  0  0  0  0  0  0  0
  -21.0654   -4.0547  -24.7308 H   0  0  0  0  0  0  0  0  0  0  0  0
  -21.3450   -5.7490  -25.1520 H   0  0  0  0  0  0  0  0  0  0  0  0
  -25.3177   -4.7381  -24.4358 H   0  0  0  0  0  0  0  0  0  0  0  0
  -23.7197   -5.1531  -23.7330 H   0  0  0  0  0  0  0  0  0  0  0  0
  -22.2927   -2.2072  -25.6663 H   0  0  0  0  0  0  0  0  0  0  0  0
  -23.8167   -2.5106  -26.5598 H   0  0  0  0  0  0  0  0  0  0  0  0
  -25.6623   -2.3530  -25.0652 H   0  0  0  0  0  0  0  0  0  0  0  0
  -25.3439   -2.5103  -23.3005 H   0  0  0  0  0  0  0  0  0  0  0  0
  -24.4946   -1.2454  -24.2592 H   0  0  0  0  0  0  0  0  0  0  0  0
  -23.9080   -2.8847  -32.6520 H   0  0  0  0  0  0  0  0  0  0  0  0
  -22.3307   -2.3682  -31.9786 H   0  0  0  0  0  0  0  0  0  0  0  0
  -23.8106   -2.2428  -30.9914 H   0  0  0  0  0  0  0  0  0  0  0  0
  -20.0571   -6.4839  -31.2549 H   0  0  0  0  0  0  0  0  0  0  0  0
  -18.5699   -5.5311  -31.3851 H   0  0  0  0  0  0  0  0  0  0  0  0
  -23.1185   -3.1062  -23.8050 H   0  0  0  0  0  0  0  0  0  0  0  0
  1  3  1  0  0  0  0
  1 10  2  0  0  0  0
  2  4  2  0  0  0  0
  2 10  1  0  0  0  0
  3 14  2  0  0  0  0
  4 14  1  0  0  0  0
  5  9  1  0  0  0  0
  5 12  2  0  0  0  0
  6 11  1  0  0  0  0
  6 13  2  0  0  0  0
  7  8  2  0  0  0  0
  7 28  1  0  0  0  0
  8 29  1  0  0  0  0
  9 11  2  0  0  0  0
  9 24  1  0  0  0  0
 10 27  1  0  0  0  0
 11 30  1  0  0  0  0
 12 13  1  0  0  0  0
 12 32  1  0  0  0  0
 13 33  1  0  0  0  0
 14 34  1  0  0  0  0
 15 16  1  0  0  0  0
 15 28  2  0  0  0  0
 15 29  1  0  0  0  0
 16 19  2  0  0  0  0
 17 18  2  0  0  0  0
 17 19  1  0  0  0  0
 18 29  1  0  0  0  0
 19 30  1  0  0  0  0
 20 22  1  0  0  0  0
 20 24  1  0  0  0  0
 21 24  1  0  0  0  0
 21 30  1  0  0  0  0
 22 31  1  0  0  0  0
 23 24  1  0  0  0  0
 23 31  1  0  0  0  0
 25 31  1  0  0  0  0
 26 32  1  0  0  0  0
 27 33  1  0  0  0  0
  1 35  1  0  0  0  0
  2 36  1  0  0  0  0
  3 37  1  0  0  0  0
  4 38  1  0  0  0  0
  5 39  1  0  0  0  0
  6 40  1  0  0  0  0
  7 41  1  0  0  0  0
  8 42  1  0  0  0  0
 16 43  1  0  0  0  0
 17 44  1  0  0  0  0
 18 45  1  0  0  0  0
 20 46  1  0  0  0  0
 20 47  1  0  0  0  0
 21 48  1  0  0  0  0
 21 49  1  0  0  0  0
 22 50  1  0  0  0  0
 22 51  1  0  0  0  0
 23 52  1  0  0  0  0
 23 53  1  0  0  0  0
 25 54  1  0  0  0  0
 25 55  1  0  0  0  0
 25 56  1  0  0  0  0
 26 57  1  0  0  0  0
 26 58  1  0  0  0  0
 26 59  1  0  0  0  0
 27 60  1  0  0  0  0
 27 61  1  0  0  0  0
 31 62  1  0  0  0  0
M  CHG  1  31   1
M  END
> <SMILES>
COc1cc2c(cc1OCc1ccc(cc1)F)N(CC12CCN(C)C1)c1ccn2ccnc2c1

> <FORMATTED_ID>
H3D-015650

> <MOLFORMULA>
C27H27FN4O2

> <Exact Mass>
458.21

> <XLogP>
5.72

> <TPSA_NOPS>
42.2

> <s_m_source_file>
ligprep_h3d.sdf

> <i_m_source_file_index>
5418

> <i_lp_mmshare_version>
55123

> <i_f3d_flags>
0

> <s_epik_input>
W2NIXTFbY0hdYyhGKVtjSF1bY0hdYzFbQ0gyXU9jKGMoW2NIXTIpT1tDSDNdKVtjSF1jKGMyW0NAQF0zNFtDSDJdW0NIMl1OKFtDSDNdKVtDSDJdNClOKFtDSDJdMyljKFtjSF1bY0hdNSlbY0hdYyhuNTYpbltjSF1bY0hdNg==

> <s_epik_cmdline>
J2VwaWtfcHl0aG9uJywgJy1waHQnLCAnMC41JywgJy1waCcsICc3LjUnLCAnLXRuJywgJzgnLCAnLW1hJywgJzUwMCcsICctaW1hZScsICc8aW5maWxlLm1hZT4nLCAnLW9tYWUnLCAnPG91dGZpbGUubWFlPic=

> <r_lp_tautomer_probability>
1

> <r_epik_Ionization_Penalty>
0.397894

> <r_epik_Ionization_Penalty_Charging>
0.397894

> <r_epik_Ionization_Penalty_Neutral>
1.84875e-11

> <r_epik_State_Penalty>
0.391321

> <r_epik_Charging_Adjusted_Penalty>
0.789215

> <i_epik_Tot_Q>
1

> <i_epik_Tot_abs_Q>
1

> <s_lp_Force_Field>
S-OPLS

> <r_lp_Energy>
54.5382

> <b_lp_Chiralities_Consistent>
1

> <s_lp_Variant>
ligprep_h3d.sdf:5418-1

> <ROCS_ShapeQuery>
_7L13

> <ROCS_TanimotoCombo>
0.689 

> <ROCS_ShapeTanimoto>
0.634 

> <ROCS_ColorTanimoto>
0.055 

> <ROCS_RefTversky>
0.762 

> <ROCS_RefColorTversky>
0.115 

> <ROCS_RefTverskyCombo>
0.877 

> <ROCS_FitTversky>
0.790 

> <ROCS_FitColorTversky>
0.095 

> <ROCS_FitTverskyCombo>
0.885 

> <ROCS_ColorScore>
-1.043

> <ROCS_Overlap>
1263.596

> <ROCS_Rank>
691                 

$$$$
ligprep_h3d.sdf:893_1803
  -OEChem-08212117123D

 67 70  0     1  0  0  0  0  0999 V2000
  -16.7650   -5.8988  -26.0971 C   0  0  0  0  0  0  0  0  0  0  0  0
  -22.9630   -4.5656  -28.6628 C   0  0  0  0  0  0  0  0  0  0  0  0
  -20.7092   -4.4269  -25.1740 C   0  0  0  0  0  0  0  0  0  0  0  0
  -16.6701   -4.5111  -26.3142 C   0  0  0  0  0  0  0  0  0  0  0  0
  -20.8359   -4.7721  -27.5635 C   0  0  0  0  0  0  0  0  0  0  0  0
  -21.0032   -5.1115  -29.9611 C   0  0  0  0  0  0  0  0  0  0  0  0
  -22.3679   -4.8599  -29.8921 C   0  0  0  0  0  0  0  0  0  0  0  0
  -20.2371   -5.0681  -28.7998 C   0  0  0  0  0  0  0  0  0  0  0  0
  -22.2209   -4.5158  -27.4860 C   0  0  0  0  0  0  0  0  0  0  0  0
  -20.0883   -4.7219  -26.3792 C   0  0  0  0  0  0  0  0  0  0  0  0
  -22.0688   -4.1906  -25.1977 C   0  0  0  0  0  0  0  0  0  0  0  0
  -18.1144   -6.1546  -26.0953 C   0  0  0  0  0  0  0  0  0  0  0  0
  -19.8530   -4.3921  -32.1377 C   0  0  0  0  0  0  0  0  0  0  0  0
  -20.3138   -6.7084  -31.6505 C   0  0  0  0  0  0  0  0  0  0  0  0
  -19.2965   -4.7170  -33.3092 C   0  0  0  0  0  0  0  0  0  0  0  0
  -20.3876   -5.4210  -31.2670 C   0  0  0  0  0  0  0  0  0  0  0  0
  -19.6953   -7.0880  -32.9588 C   0  0  0  0  0  0  0  0  0  0  0  0
  -22.7797   -3.8763  -23.9703 C   0  0  0  0  0  0  0  0  0  0  0  0
  -23.2373   -4.8935  -31.1088 C   0  0  0  0  0  0  0  0  0  0  0  0
  -18.7690   -5.3506  -28.9533 C   0  0  0  0  0  0  0  0  0  0  0  0
  -18.8510   -7.4212  -25.9160 C   0  0  0  0  0  0  0  0  0  0  0  0
  -26.9287   -4.8603  -21.4256 C   0  0  0  0  0  0  0  0  0  0  0  0
  -20.0125   -7.0758  -38.3275 C   0  0  0  0  0  0  0  0  0  0  0  0
  -18.5846   -6.2848  -35.0251 C   0  0  0  0  0  0  0  0  0  0  0  0
  -24.9675   -4.0071  -22.7507 C   0  0  0  0  0  0  0  0  0  0  0  0
  -19.6565   -6.5843  -36.0572 C   0  0  0  0  0  0  0  0  0  0  0  0
  -26.0193   -5.1061  -22.6221 C   0  0  2  0  0  0  0  0  0  0  0  0
  -17.8642   -3.9263  -26.4413 N   0  0  0  0  0  0  0  0  0  0  0  0
  -22.8261   -4.2292  -26.3178 N   0  0  0  0  0  0  0  0  0  0  0  0
  -18.7221   -4.9515  -26.3037 N   0  0  0  0  0  0  0  0  0  0  0  0
  -19.2083   -6.0299  -33.7322 N   0  0  0  0  0  0  0  0  0  0  0  0
  -24.1220   -4.2680  -23.8935 N   0  0  0  0  0  0  0  0  0  0  0  0
  -19.6514   -8.2776  -33.2691 O   0  0  0  0  0  0  0  0  0  0  0  0
  -22.2095   -3.2665  -23.0472 O   0  0  0  0  0  0  0  0  0  0  0  0
  -26.8155   -5.1158  -23.8056 O   0  0  0  0  0  0  0  0  0  0  0  0
  -19.0462   -6.7970  -37.3237 O   0  0  0  0  0  0  0  0  0  0  0  0
  -15.9652   -6.6122  -25.9615 H   0  0  0  0  0  0  0  0  0  0  0  0
  -24.0340   -4.3705  -28.6238 H   0  0  0  0  0  0  0  0  0  0  0  0
  -20.1529   -4.3817  -24.2421 H   0  0  0  0  0  0  0  0  0  0  0  0
  -15.7805   -3.9018  -26.3853 H   0  0  0  0  0  0  0  0  0  0  0  0
  -19.9122   -3.3551  -31.8224 H   0  0  0  0  0  0  0  0  0  0  0  0
  -20.6959   -7.5219  -31.0391 H   0  0  0  0  0  0  0  0  0  0  0  0
  -18.8922   -3.9597  -33.9718 H   0  0  0  0  0  0  0  0  0  0  0  0
  -23.2800   -3.9009  -31.5699 H   0  0  0  0  0  0  0  0  0  0  0  0
  -22.8547   -5.6079  -31.8469 H   0  0  0  0  0  0  0  0  0  0  0  0
  -24.2567   -5.2079  -30.8560 H   0  0  0  0  0  0  0  0  0  0  0  0
  -18.5836   -6.4214  -28.8370 H   0  0  0  0  0  0  0  0  0  0  0  0
  -18.4143   -5.0315  -29.9373 H   0  0  0  0  0  0  0  0  0  0  0  0
  -18.1894   -4.8042  -28.2038 H   0  0  0  0  0  0  0  0  0  0  0  0
  -19.0784   -7.6013  -24.8526 H   0  0  0  0  0  0  0  0  0  0  0  0
  -19.8061   -7.4261  -26.4684 H   0  0  0  0  0  0  0  0  0  0  0  0
  -18.2793   -8.2885  -26.2882 H   0  0  0  0  0  0  0  0  0  0  0  0
  -27.4205   -3.8852  -21.4933 H   0  0  0  0  0  0  0  0  0  0  0  0
  -27.6968   -5.6381  -21.3506 H   0  0  0  0  0  0  0  0  0  0  0  0
  -26.3539   -4.8953  -20.4937 H   0  0  0  0  0  0  0  0  0  0  0  0
  -19.5095   -7.2334  -39.2848 H   0  0  0  0  0  0  0  0  0  0  0  0
  -20.7111   -6.2388  -38.4044 H   0  0  0  0  0  0  0  0  0  0  0  0
  -20.5597   -7.9806  -38.0527 H   0  0  0  0  0  0  0  0  0  0  0  0
  -17.8951   -7.1276  -34.9131 H   0  0  0  0  0  0  0  0  0  0  0  0
  -18.0179   -5.3939  -35.3121 H   0  0  0  0  0  0  0  0  0  0  0  0
  -25.4415   -3.0286  -22.8834 H   0  0  0  0  0  0  0  0  0  0  0  0
  -24.3395   -3.9659  -21.8548 H   0  0  0  0  0  0  0  0  0  0  0  0
  -20.3368   -5.7319  -36.1490 H   0  0  0  0  0  0  0  0  0  0  0  0
  -20.2343   -7.4752  -35.7906 H   0  0  0  0  0  0  0  0  0  0  0  0
  -25.5405   -6.0876  -22.5289 H   0  0  0  0  0  0  0  0  0  0  0  0
  -24.5568   -4.7064  -24.6988 H   0  0  0  0  0  0  0  0  0  0  0  0
  -27.4586   -5.8332  -23.6985 H   0  0  0  0  0  0  0  0  0  0  0  0
  1  4  1  0  0  0  0
  1 12  2  0  0  0  0
  2  7  1  0  0  0  0
  2  9  2  0  0  0  0
  3 10  2  0  0  0  0
  3 11  1  0  0  0  0
  4 28  2  0  0  0  0
  5  8  2  0  0  0  0
  5  9  1  0  0  0  0
  5 10  1  0  0  0  0
  6  7  2  0  0  0  0
  6  8  1  0  0  0  0
  6 16  1  0  0  0  0
  7 19  1  0  0  0  0
  8 20  1  0  0  0  0
  9 29  1  0  0  0  0
 10 30  1  0  0  0  0
 11 18  1  0  0  0  0
 11 29  2  0  0  0  0
 12 21  1  0  0  0  0
 12 30  1  0  0  0  0
 13 15  2  0  0  0  0
 13 16  1  0  0  0  0
 14 16  2  0  0  0  0
 14 17  1  0  0  0  0
 15 31  1  0  0  0  0
 17 31  1  0  0  0  0
 17 33  2  0  0  0  0
 18 32  1  0  0  0  0
 18 34  2  0  0  0  0
 22 27  1  0  0  0  0
 23 36  1  0  0  0  0
 24 26  1  0  0  0  0
 24 31  1  0  0  0  0
 25 27  1  0  0  0  0
 25 32  1  0  0  0  0
 26 36  1  0  0  0  0
 27 35  1  0  0  0  0
 28 30  1  0  0  0  0
  1 37  1  0  0  0  0
  2 38  1  0  0  0  0
  3 39  1  0  0  0  0
  4 40  1  0  0  0  0
 13 41  1  0  0  0  0
 14 42  1  0  0  0  0
 15 43  1  0  0  0  0
 19 44  1  0  0  0  0
 19 45  1  0  0  0  0
 19 46  1  0  0  0  0
 20 47  1  0  0  0  0
 20 48  1  0  0  0  0
 20 49  1  0  0  0  0
 21 50  1  0  0  0  0
 21 51  1  0  0  0  0
 21 52  1  0  0  0  0
 22 53  1  0  0  0  0
 22 54  1  0  0  0  0
 22 55  1  0  0  0  0
 23 56  1  0  0  0  0
 23 57  1  0  0  0  0
 23 58  1  0  0  0  0
 24 59  1  0  0  0  0
 24 60  1  0  0  0  0
 25 61  1  0  0  0  0
 25 62  1  0  0  0  0
 26 63  1  0  0  0  0
 26 64  1  0  0  0  0
 27 65  1  0  0  0  0
 32 66  1  0  0  0  0
 35 67  1  0  0  0  0
M  END
> <SMILES>
COCCN1C=CC(=CC1=O)c1c(cc2nc(cc(c2c1C)-n1nccc1C)C(=O)NC[C@@H](C)O)C

> <FORMATTED_ID>
H3D-005798

> <MOLFORMULA>
C27H31N5O4

> <Exact Mass>
489.24

> <XLogP>
2.45

> <TPSA_NOPS>
109.6

> <s_m_source_file>
ligprep_h3d.sdf

> <i_m_source_file_index>
893

> <i_lp_mmshare_version>
55123

> <i_f3d_flags>
0

> <s_epik_input>
W0NIM11PW0NIMl1bQ0gyXW4xW2NIXVtjSF1jKFtjSF1jMT1PKS1jKGMoW2NIXTIpW0NIM10pYyhbQ0gzXSljKGMyMyljKC1uNG5bY0hdW2NIXWM0W0NIM10pW2NIXWMobjMpQyg9TylbTkhdW0NIMl1bQ0BASF0oW0NIM10pW09IXQ==

> <s_epik_cmdline>
J2VwaWtfcHl0aG9uJywgJy1waHQnLCAnMC41JywgJy1waCcsICc3LjUnLCAnLXRuJywgJzgnLCAnLW1hJywgJzUwMCcsICctaW1hZScsICc8aW5maWxlLm1hZT4nLCAnLW9tYWUnLCAnPG91dGZpbGUubWFlPic=

> <r_lp_tautomer_probability>
1

> <r_epik_Ionization_Penalty>
1.60453e-05

> <r_epik_Ionization_Penalty_Charging>
2.32377e-07

> <r_epik_Ionization_Penalty_Neutral>
1.5813e-05

> <r_epik_State_Penalty>
-0

> <r_epik_Charging_Adjusted_Penalty>
2.32377e-07

> <i_epik_Tot_Q>
0

> <i_epik_Tot_abs_Q>
0

> <s_lp_Force_Field>
S-OPLS

> <r_lp_Energy>
66.8767

> <b_lp_Chiralities_Consistent>
1

> <s_lp_Variant>
ligprep_h3d.sdf:893-1

> <ROCS_ShapeQuery>
_7L13

> <ROCS_TanimotoCombo>
0.725 

> <ROCS_ShapeTanimoto>
0.617 

> <ROCS_ColorTanimoto>
0.108 

> <ROCS_RefTversky>
0.762 

> <ROCS_RefColorTversky>
0.224 

> <ROCS_RefTverskyCombo>
0.986 

> <ROCS_FitTversky>
0.764 

> <ROCS_FitColorTversky>
0.173 

> <ROCS_FitTverskyCombo>
0.937 

> <ROCS_ColorScore>
-2.048

> <ROCS_Overlap>
1265.738

> <ROCS_Rank>
692                 

$$$$
ligprep_h3d.sdf:737_106
  -OEChem-08212117123D

 61 66  0     1  0  0  0  0  0999 V2000
  -20.9815   -5.1416  -29.5119 C   0  0  0  0  0  0  0  0  0  0  0  0
  -21.7559   -4.3811  -30.3902 C   0  0  0  0  0  0  0  0  0  0  0  0
  -21.0919   -4.8995  -28.1209 C   0  0  0  0  0  0  0  0  0  0  0  0
  -21.9869   -3.9444  -27.5842 C   0  0  0  0  0  0  0  0  0  0  0  0
  -22.5998   -3.4285  -29.8634 C   0  0  0  0  0  0  0  0  0  0  0  0
  -22.7447   -3.1754  -28.4991 C   0  0  0  0  0  0  0  0  0  0  0  0
  -21.9541   -4.2735  -31.7793 C   0  0  0  0  0  0  0  0  0  0  0  0
  -18.9194   -3.8436  -26.2094 C   0  0  0  0  0  0  0  0  0  0  0  0
  -19.2679   -6.1080  -25.0273 C   0  0  0  0  0  0  0  0  0  0  0  0
  -17.0067   -5.3556  -25.7333 C   0  0  0  0  0  0  0  0  0  0  0  0
  -20.2271   -5.7236  -27.2048 C   0  0  0  0  0  0  0  0  0  0  0  0
  -20.7079   -7.3387  -33.4929 C   0  0  0  0  0  0  0  0  0  0  0  0
  -19.7946   -6.7952  -34.5863 C   0  0  0  0  0  0  0  0  0  0  0  0
  -21.8241   -6.3693  -33.1112 C   0  0  0  0  0  0  0  0  0  0  0  0
  -19.9944   -4.6389  -33.2585 C   0  0  0  0  0  0  0  0  0  0  0  0
  -23.0437   -2.7941  -25.6494 C   0  0  0  0  0  0  0  0  0  0  0  0
  -21.2147   -4.4818  -25.2392 C   0  0  2  0  0  0  0  0  0  0  0  0
  -19.7709   -5.2693  -34.6324 C   0  0  1  0  0  0  0  0  0  0  0  0
  -23.4140   -3.1040  -24.1962 C   0  0  1  0  0  0  0  0  0  0  0  0
  -21.0428   -3.5476  -24.0062 C   0  0  2  0  0  0  0  0  0  0  0  0
  -19.8891   -4.9912  -25.8823 C   0  0  0  0  0  0  0  0  0  0  0  0
  -24.4074   -4.2580  -24.0756 C   0  0  0  0  0  0  0  0  0  0  0  0
  -20.0896   -4.0353  -22.9216 C   0  0  0  0  0  0  0  0  0  0  0  0
  -22.8473   -3.3298  -32.0922 N   0  0  0  0  0  0  0  0  0  0  0  0
  -17.5785   -4.1934  -26.2307 N   0  0  0  0  0  0  0  0  0  0  0  0
  -17.8917   -6.2378  -25.1301 N   0  0  0  0  0  0  0  0  0  0  0  0
  -22.0944   -3.7687  -26.2025 N   0  0  3  0  0  0  0  0  0  0  0  0
  -21.2699   -5.0793  -32.6879 N   0  0  0  0  0  0  0  0  0  0  0  0
  -19.2920   -2.7063  -26.4973 O   0  0  0  0  0  0  0  0  0  0  0  0
  -19.9435   -6.8957  -24.3636 O   0  0  0  0  0  0  0  0  0  0  0  0
  -15.7945   -5.5701  -25.7869 O   0  0  0  0  0  0  0  0  0  0  0  0
  -23.2532   -2.7944  -30.8753 O   0  0  0  0  0  0  0  0  0  0  0  0
  -22.3027   -3.3713  -23.3464 O   0  0  0  0  0  0  0  0  0  0  0  0
  -18.5304   -4.8259  -35.1736 O   0  0  0  0  0  0  0  0  0  0  0  0
  -23.5188   -2.1467  -28.1337 F   0  0  0  0  0  0  0  0  0  0  0  0
  -20.3000   -5.8991  -29.8887 H   0  0  0  0  0  0  0  0  0  0  0  0
  -20.7615   -6.6626  -27.0049 H   0  0  0  0  0  0  0  0  0  0  0  0
  -19.2984   -5.9956  -27.7251 H   0  0  0  0  0  0  0  0  0  0  0  0
  -21.1503   -8.2916  -33.8269 H   0  0  0  0  0  0  0  0  0  0  0  0
  -20.1083   -7.5770  -32.6006 H   0  0  0  0  0  0  0  0  0  0  0  0
  -18.7665   -7.1802  -34.4429 H   0  0  0  0  0  0  0  0  0  0  0  0
  -20.1054   -7.1926  -35.5704 H   0  0  0  0  0  0  0  0  0  0  0  0
  -22.4912   -6.2399  -33.9728 H   0  0  0  0  0  0  0  0  0  0  0  0
  -22.4232   -6.7907  -32.2940 H   0  0  0  0  0  0  0  0  0  0  0  0
  -19.1724   -4.9028  -32.5794 H   0  0  0  0  0  0  0  0  0  0  0  0
  -19.9658   -3.5456  -33.3596 H   0  0  0  0  0  0  0  0  0  0  0  0
  -23.9564   -2.8301  -26.2796 H   0  0  0  0  0  0  0  0  0  0  0  0
  -22.7245   -1.7414  -25.6914 H   0  0  0  0  0  0  0  0  0  0  0  0
  -21.7987   -5.3555  -24.9106 H   0  0  0  0  0  0  0  0  0  0  0  0
  -20.5672   -4.9181  -35.3266 H   0  0  0  0  0  0  0  0  0  0  0  0
  -23.9535   -2.1921  -23.7618 H   0  0  0  0  0  0  0  0  0  0  0  0
  -20.6908   -2.5473  -24.3186 H   0  0  0  0  0  0  0  0  0  0  0  0
  -23.9663   -5.1730  -24.4714 H   0  0  0  0  0  0  0  0  0  0  0  0
  -25.3134   -4.0307  -24.6375 H   0  0  0  0  0  0  0  0  0  0  0  0
  -24.6704   -4.4161  -23.0295 H   0  0  0  0  0  0  0  0  0  0  0  0
  -20.3927   -5.0235  -22.5759 H   0  0  0  0  0  0  0  0  0  0  0  0
  -20.1018   -3.3460  -22.0774 H   0  0  0  0  0  0  0  0  0  0  0  0
  -19.0751   -4.0941  -23.3160 H   0  0  0  0  0  0  0  0  0  0  0  0
  -16.9443   -3.5250  -26.6575 H   0  0  0  0  0  0  0  0  0  0  0  0
  -17.4787   -7.0423  -24.6671 H   0  0  0  0  0  0  0  0  0  0  0  0
  -18.4685   -5.1985  -36.0671 H   0  0  0  0  0  0  0  0  0  0  0  0
  1  2  2  0  0  0  0
  1  3  1  0  0  0  0
  2  5  1  0  0  0  0
  2  7  1  0  0  0  0
  3  4  2  0  0  0  0
  3 11  1  0  0  0  0
  4  6  1  0  0  0  0
  4 27  1  0  0  0  0
  5  6  2  0  0  0  0
  5 32  1  0  0  0  0
  6 35  1  0  0  0  0
  7 24  2  0  0  0  0
  7 28  1  0  0  0  0
  8 21  1  0  0  0  0
  8 25  1  0  0  0  0
  8 29  2  0  0  0  0
  9 21  1  0  0  0  0
  9 26  1  0  0  0  0
  9 30  2  0  0  0  0
 10 25  1  0  0  0  0
 10 26  1  0  0  0  0
 10 31  2  0  0  0  0
 11 21  1  0  0  0  0
 12 13  1  0  0  0  0
 12 14  1  0  0  0  0
 13 18  1  0  0  0  0
 14 28  1  0  0  0  0
 15 18  1  0  0  0  0
 15 28  1  0  0  0  0
 16 19  1  0  0  0  0
 16 27  1  0  0  0  0
 17 20  1  0  0  0  0
 17 21  1  0  0  0  0
 17 27  1  0  0  0  0
 18 34  1  0  0  0  0
 19 22  1  0  0  0  0
 19 33  1  0  0  0  0
 20 23  1  0  0  0  0
 20 33  1  0  0  0  0
 24 32  1  0  0  0  0
  1 36  1  0  0  0  0
 11 37  1  0  0  0  0
 11 38  1  0  0  0  0
 12 39  1  0  0  0  0
 12 40  1  0  0  0  0
 13 41  1  0  0  0  0
 13 42  1  0  0  0  0
 14 43  1  0  0  0  0
 14 44  1  0  0  0  0
 15 45  1  0  0  0  0
 15 46  1  0  0  0  0
 16 47  1  0  0  0  0
 16 48  1  0  0  0  0
 17 49  1  0  0  0  0
 18 50  1  0  0  0  0
 19 51  1  0  0  0  0
 20 52  1  0  0  0  0
 22 53  1  0  0  0  0
 22 54  1  0  0  0  0
 22 55  1  0  0  0  0
 23 56  1  0  0  0  0
 23 57  1  0  0  0  0
 23 58  1  0  0  0  0
 25 59  1  0  0  0  0
 26 60  1  0  0  0  0
 34 61  1  0  0  0  0
M  END
> <SMILES>
C[C@@H]1CN2[C@H]([C@H](C)O1)C1(Cc3cc4c(noc4c(c32)F)N2CCC[C@H](O)C2)C(=O)NC(=O)NC1=O

> <FORMATTED_ID>
H3D-004992

> <MOLFORMULA>
C23H26FN5O6

> <Exact Mass>
487.19

> <XLogP>
0.29

> <TPSA_NOPS>
137.5

> <s_m_source_file>
ligprep_h3d.sdf

> <i_m_source_file_index>
737

> <i_lp_mmshare_version>
55123

> <i_f3d_flags>
0

> <s_epik_input>
Tz1DMVtOSF1DKD1PKVtOSF1DKD1PKUMxMltDQEBIXTNOKFtDSDJdW0NAQEhdKFtDSDNdKU9bQ0BIXTNbQ0gzXSljNGMoW0NIMl0yKVtjSF1jNWMoYzRGKW9uYzVONltDSDJdW0NIMl1bQ0gyXVtDQEhdKFtPSF0pW0NIMl02

> <s_epik_cmdline>
J2VwaWtfcHl0aG9uJywgJy1waHQnLCAnMC41JywgJy1waCcsICc3LjUnLCAnLXRuJywgJzgnLCAnLW1hJywgJzUwMCcsICctaW1hZScsICc8aW5maWxlLm1hZT4nLCAnLW9tYWUnLCAnPG91dGZpbGUubWFlPic=

> <r_lp_tautomer_probability>
1

> <r_epik_Ionization_Penalty>
0.36913

> <r_epik_Ionization_Penalty_Charging>
0

> <r_epik_Ionization_Penalty_Neutral>
0.36913

> <r_epik_State_Penalty>
0.366447

> <r_epik_Charging_Adjusted_Penalty>
0.366447

> <i_epik_Tot_Q>
0

> <i_epik_Tot_abs_Q>
0

> <s_lp_Force_Field>
S-OPLS

> <r_lp_Energy>
44.6918

> <b_lp_Chiralities_Consistent>
1

> <s_lp_Variant>
ligprep_h3d.sdf:737-1

> <ROCS_ShapeQuery>
_7L13

> <ROCS_TanimotoCombo>
0.750 

> <ROCS_ShapeTanimoto>
0.619 

> <ROCS_ColorTanimoto>
0.130 

> <ROCS_RefTversky>
0.762 

> <ROCS_RefColorTversky>
0.298 

> <ROCS_RefTverskyCombo>
1.060 

> <ROCS_FitTversky>
0.767 

> <ROCS_FitColorTversky>
0.188 

> <ROCS_FitTverskyCombo>
0.956 

> <ROCS_ColorScore>
-2.771

> <ROCS_Overlap>
1265.361

> <ROCS_Rank>
693                 

$$$$
ligprep_h3d.sdf:1275_1783
  -OEChem-08212117123D

 74 77  0     1  0  0  0  0  0999 V2000
  -21.8689   -3.2819  -31.5831 C   0  0  0  0  0  0  0  0  0  0  0  0
  -21.8842   -5.6897  -31.3849 C   0  0  0  0  0  0  0  0  0  0  0  0
  -21.5362   -3.3951  -32.9330 C   0  0  0  0  0  0  0  0  0  0  0  0
  -21.5515   -5.8029  -32.7348 C   0  0  0  0  0  0  0  0  0  0  0  0
  -17.3400   -4.7295  -26.6005 C   0  0  0  0  0  0  0  0  0  0  0  0
  -24.0702   -4.1581  -27.6776 C   0  0  0  0  0  0  0  0  0  0  0  0
  -21.1433   -3.9342  -24.7360 C   0  0  0  0  0  0  0  0  0  0  0  0
  -17.4775   -3.3314  -26.6903 C   0  0  0  0  0  0  0  0  0  0  0  0
  -21.7454   -4.1228  -27.0698 C   0  0  0  0  0  0  0  0  0  0  0  0
  -22.0429   -4.4292  -30.8091 C   0  0  0  0  0  0  0  0  0  0  0  0
  -22.3894   -4.3111  -29.4025 C   0  0  0  0  0  0  0  0  0  0  0  0
  -21.3775   -4.6556  -33.5088 C   0  0  0  0  0  0  0  0  0  0  0  0
  -23.7264   -4.2716  -29.0269 C   0  0  0  0  0  0  0  0  0  0  0  0
  -21.3993   -4.2369  -28.4270 C   0  0  0  0  0  0  0  0  0  0  0  0
  -23.1008   -4.0823  -26.6812 C   0  0  0  0  0  0  0  0  0  0  0  0
  -20.7691   -4.0462  -26.0673 C   0  0  0  0  0  0  0  0  0  0  0  0
  -22.4937   -3.9024  -24.4532 C   0  0  0  0  0  0  0  0  0  0  0  0
  -18.6108   -5.1839  -26.3455 C   0  0  0  0  0  0  0  0  0  0  0  0
  -22.9534   -3.7879  -23.0797 C   0  0  0  0  0  0  0  0  0  0  0  0
  -24.8299   -4.3464  -30.0341 C   0  0  0  0  0  0  0  0  0  0  0  0
  -19.9761   -4.2856  -28.9083 C   0  0  0  0  0  0  0  0  0  0  0  0
  -19.1178   -6.5560  -26.1473 C   0  0  0  0  0  0  0  0  0  0  0  0
  -25.0032   -6.1295  -21.2959 C   0  0  0  0  0  0  0  0  0  0  0  0
  -18.6881   -7.5750  -38.1748 C   0  0  0  0  0  0  0  0  0  0  0  0
  -19.8867   -8.6465  -36.2465 C   0  0  0  0  0  0  0  0  0  0  0  0
  -21.0216   -4.7767  -34.9520 C   0  0  0  0  0  0  0  0  0  0  0  0
  -24.9487   -3.6289  -21.5684 C   0  0  0  0  0  0  0  0  0  0  0  0
  -19.8988   -6.1225  -36.5176 C   0  0  0  0  0  0  0  0  0  0  0  0
  -25.8231   -4.8463  -21.2786 C   0  0  1  0  0  0  0  0  0  0  0  0
  -19.1020   -7.4188  -36.7104 C   0  0  0  0  0  0  0  0  0  0  0  0
  -18.7364   -2.9243  -26.5073 N   0  0  0  0  0  0  0  0  0  0  0  0
  -23.4669   -3.9735  -25.3901 N   0  0  0  0  0  0  0  0  0  0  0  0
  -19.4015   -4.0736  -26.3001 N   0  0  0  0  0  0  0  0  0  0  0  0
  -24.3380   -3.7620  -22.8715 N   0  0  0  0  0  0  0  0  0  0  0  0
  -22.1370   -3.6969  -22.1447 O   0  0  0  0  0  0  0  0  0  0  0  0
  -26.8296   -4.9345  -22.2854 O   0  0  0  0  0  0  0  0  0  0  0  0
  -17.9139   -7.3504  -35.9176 O   0  0  0  0  0  0  0  0  0  0  0  0
  -20.2627   -5.9627  -35.1535 O   0  0  0  0  0  0  0  0  0  0  0  0
  -21.9884   -2.2922  -31.1487 H   0  0  0  0  0  0  0  0  0  0  0  0
  -22.0171   -6.5934  -30.7948 H   0  0  0  0  0  0  0  0  0  0  0  0
  -21.4015   -2.4958  -33.5282 H   0  0  0  0  0  0  0  0  0  0  0  0
  -21.4304   -6.7891  -33.1754 H   0  0  0  0  0  0  0  0  0  0  0  0
  -16.4436   -5.3229  -26.7067 H   0  0  0  0  0  0  0  0  0  0  0  0
  -25.1227   -4.1284  -27.3975 H   0  0  0  0  0  0  0  0  0  0  0  0
  -20.4069   -3.8731  -23.9394 H   0  0  0  0  0  0  0  0  0  0  0  0
  -16.7128   -2.5923  -26.8816 H   0  0  0  0  0  0  0  0  0  0  0  0
  -25.1008   -3.3405  -30.3725 H   0  0  0  0  0  0  0  0  0  0  0  0
  -24.5293   -4.9411  -30.9044 H   0  0  0  0  0  0  0  0  0  0  0  0
  -25.7193   -4.8259  -29.6091 H   0  0  0  0  0  0  0  0  0  0  0  0
  -19.6320   -5.3223  -28.9423 H   0  0  0  0  0  0  0  0  0  0  0  0
  -19.8903   -3.8475  -29.9065 H   0  0  0  0  0  0  0  0  0  0  0  0
  -19.3231   -3.7138  -28.2429 H   0  0  0  0  0  0  0  0  0  0  0  0
  -19.0807   -6.8434  -25.0838 H   0  0  0  0  0  0  0  0  0  0  0  0
  -20.1617   -6.6645  -26.4876 H   0  0  0  0  0  0  0  0  0  0  0  0
  -18.5331   -7.2992  -26.7161 H   0  0  0  0  0  0  0  0  0  0  0  0
  -24.4921   -6.2622  -22.2543 H   0  0  0  0  0  0  0  0  0  0  0  0
  -24.2556   -6.1279  -20.4950 H   0  0  0  0  0  0  0  0  0  0  0  0
  -25.6474   -6.9983  -21.1228 H   0  0  0  0  0  0  0  0  0  0  0  0
  -18.1247   -6.6993  -38.5167 H   0  0  0  0  0  0  0  0  0  0  0  0
  -18.0708   -8.4664  -38.3263 H   0  0  0  0  0  0  0  0  0  0  0  0
  -19.5679   -7.6488  -38.8242 H   0  0  0  0  0  0  0  0  0  0  0  0
  -20.1920   -8.5525  -35.1984 H   0  0  0  0  0  0  0  0  0  0  0  0
  -19.2651   -9.5478  -36.3014 H   0  0  0  0  0  0  0  0  0  0  0  0
  -20.7808   -8.8064  -36.8576 H   0  0  0  0  0  0  0  0  0  0  0  0
  -21.9191   -4.8228  -35.5838 H   0  0  0  0  0  0  0  0  0  0  0  0
  -20.4270   -3.9160  -35.2877 H   0  0  0  0  0  0  0  0  0  0  0  0
  -25.5446   -2.7099  -21.5544 H   0  0  0  0  0  0  0  0  0  0  0  0
  -24.1554   -3.5353  -20.8197 H   0  0  0  0  0  0  0  0  0  0  0  0
  -19.2984   -5.2513  -36.8014 H   0  0  0  0  0  0  0  0  0  0  0  0
  -20.8156   -6.1326  -37.1167 H   0  0  0  0  0  0  0  0  0  0  0  0
  -26.3233   -4.7385  -20.3092 H   0  0  0  0  0  0  0  0  0  0  0  0
  -24.9597   -3.7758  -23.6734 H   0  0  0  0  0  0  0  0  0  0  0  0
  -27.3750   -5.7043  -22.0624 H   0  0  0  0  0  0  0  0  0  0  0  0
  -17.4390   -8.1809  -36.0682 H   0  0  0  0  0  0  0  0  0  0  0  0
  1  3  1  0  0  0  0
  1 10  2  0  0  0  0
  2  4  2  0  0  0  0
  2 10  1  0  0  0  0
  3 12  2  0  0  0  0
  4 12  1  0  0  0  0
  5  8  1  0  0  0  0
  5 18  2  0  0  0  0
  6 13  2  0  0  0  0
  6 15  1  0  0  0  0
  7 16  1  0  0  0  0
  7 17  2  0  0  0  0
  8 31  2  0  0  0  0
  9 14  1  0  0  0  0
  9 15  1  0  0  0  0
  9 16  2  0  0  0  0
 10 11  1  0  0  0  0
 11 13  1  0  0  0  0
 11 14  2  0  0  0  0
 12 26  1  0  0  0  0
 13 20  1  0  0  0  0
 14 21  1  0  0  0  0
 15 32  2  0  0  0  0
 16 33  1  0  0  0  0
 17 19  1  0  0  0  0
 17 32  1  0  0  0  0
 18 22  1  0  0  0  0
 18 33  1  0  0  0  0
 19 34  1  0  0  0  0
 19 35  2  0  0  0  0
 23 29  1  0  0  0  0
 24 30  1  0  0  0  0
 25 30  1  0  0  0  0
 26 38  1  0  0  0  0
 27 29  1  0  0  0  0
 27 34  1  0  0  0  0
 28 30  1  0  0  0  0
 28 38  1  0  0  0  0
 29 36  1  0  0  0  0
 30 37  1  0  0  0  0
 31 33  1  0  0  0  0
  1 39  1  0  0  0  0
  2 40  1  0  0  0  0
  3 41  1  0  0  0  0
  4 42  1  0  0  0  0
  5 43  1  0  0  0  0
  6 44  1  0  0  0  0
  7 45  1  0  0  0  0
  8 46  1  0  0  0  0
 20 47  1  0  0  0  0
 20 48  1  0  0  0  0
 20 49  1  0  0  0  0
 21 50  1  0  0  0  0
 21 51  1  0  0  0  0
 21 52  1  0  0  0  0
 22 53  1  0  0  0  0
 22 54  1  0  0  0  0
 22 55  1  0  0  0  0
 23 56  1  0  0  0  0
 23 57  1  0  0  0  0
 23 58  1  0  0  0  0
 24 59  1  0  0  0  0
 24 60  1  0  0  0  0
 24 61  1  0  0  0  0
 25 62  1  0  0  0  0
 25 63  1  0  0  0  0
 25 64  1  0  0  0  0
 26 65  1  0  0  0  0
 26 66  1  0  0  0  0
 27 67  1  0  0  0  0
 27 68  1  0  0  0  0
 28 69  1  0  0  0  0
 28 70  1  0  0  0  0
 29 71  1  0  0  0  0
 34 72  1  0  0  0  0
 36 73  1  0  0  0  0
 37 74  1  0  0  0  0
M  END
> <SMILES>
C[C@H](O)CNC(=O)c1cc(c2c(c(c(cc2n1)C)-c1ccc(cc1)COCC(C)(C)O)C)-n1nccc1C

> <FORMATTED_ID>
H3D-008581

> <MOLFORMULA>
C30H36N4O4

> <Exact Mass>
516.27

> <XLogP>
4.14

> <TPSA_NOPS>
109.5

> <s_m_source_file>
ligprep_h3d.sdf

> <i_m_source_file_index>
1275

> <i_lp_mmshare_version>
55123

> <i_f3d_flags>
0

> <s_epik_input>
W0NIM11jMVtjSF1bY0hdbm4xLWMyW2NIXWMoQyg9TylbTkhdW0NIMl1bQ0BIXShbQ0gzXSlbT0hdKW5jKGMyMylbY0hdYyhbQ0gzXSljKGMzW0NIM10pLWM0W2NIXVtjSF1jKFtjSF1bY0hdNClbQ0gyXU9bQ0gyXUMoW0NIM10pKFtDSDNdKVtPSF0=

> <s_epik_cmdline>
J2VwaWtfcHl0aG9uJywgJy1waHQnLCAnMC41JywgJy1waCcsICc3LjUnLCAnLXRuJywgJzgnLCAnLW1hJywgJzUwMCcsICctaW1hZScsICc8aW5maWxlLm1hZT4nLCAnLW9tYWUnLCAnPG91dGZpbGUubWFlPic=

> <r_lp_tautomer_probability>
1

> <r_epik_Ionization_Penalty>
1.82648e-05

> <r_epik_Ionization_Penalty_Charging>
0

> <r_epik_Ionization_Penalty_Neutral>
1.82648e-05

> <r_epik_State_Penalty>
-0

> <r_epik_Charging_Adjusted_Penalty>
0

> <i_epik_Tot_Q>
0

> <i_epik_Tot_abs_Q>
0

> <s_lp_Force_Field>
S-OPLS

> <r_lp_Energy>
47.1828

> <b_lp_Chiralities_Consistent>
1

> <s_lp_Variant>
ligprep_h3d.sdf:1275-1

> <ROCS_ShapeQuery>
_7L13

> <ROCS_TanimotoCombo>
0.773 

> <ROCS_ShapeTanimoto>
0.597 

> <ROCS_ColorTanimoto>
0.176 

> <ROCS_RefTversky>
0.762 

> <ROCS_RefColorTversky>
0.372 

> <ROCS_RefTverskyCombo>
1.134 

> <ROCS_FitTversky>
0.733 

> <ROCS_FitColorTversky>
0.250 

> <ROCS_FitTverskyCombo>
0.983 

> <ROCS_ColorScore>
-3.441

> <ROCS_Overlap>
1268.613

> <ROCS_Rank>
694                 

$$$$
ligprep_h3d.sdf:2804_1794
  -OEChem-08212117123D

 59 62  0     0  0  0  0  0  0999 V2000
  -16.0197   -5.5082  -24.1131 C   0  0  0  0  0  0  0  0  0  0  0  0
  -17.1519   -5.3621  -23.3181 C   0  0  0  0  0  0  0  0  0  0  0  0
  -16.1133   -5.4125  -25.5025 C   0  0  0  0  0  0  0  0  0  0  0  0
  -18.4115   -5.1299  -23.8845 C   0  0  0  0  0  0  0  0  0  0  0  0
  -22.0542   -3.6456  -31.8671 C   0  0  0  0  0  0  0  0  0  0  0  0
  -20.9394   -5.6496  -31.1067 C   0  0  0  0  0  0  0  0  0  0  0  0
  -21.8493   -4.0339  -33.1910 C   0  0  0  0  0  0  0  0  0  0  0  0
  -20.7345   -6.0379  -32.4307 C   0  0  0  0  0  0  0  0  0  0  0  0
  -17.3713   -5.1747  -26.0853 C   0  0  0  0  0  0  0  0  0  0  0  0
  -18.5062   -5.0560  -25.2834 C   0  0  0  0  0  0  0  0  0  0  0  0
  -21.5992   -4.4534  -30.8249 C   0  0  0  0  0  0  0  0  0  0  0  0
  -21.1895   -5.2301  -33.4728 C   0  0  0  0  0  0  0  0  0  0  0  0
  -18.9794   -4.7865  -27.4525 C   0  0  0  0  0  0  0  0  0  0  0  0
  -21.6967   -4.4537  -27.0744 C   0  0  0  0  0  0  0  0  0  0  0  0
  -20.9419   -4.7191  -25.9941 C   0  0  0  0  0  0  0  0  0  0  0  0
  -21.0202   -4.3472  -28.4069 C   0  0  0  0  0  0  0  0  0  0  0  0
  -26.9578   -4.1864  -22.9926 C   0  0  0  0  0  0  0  0  0  0  0  0
  -23.6233   -2.7986  -20.8014 C   0  0  0  0  0  0  0  0  0  0  0  0
  -22.8126   -4.3657  -24.4767 C   0  0  0  0  0  0  0  0  0  0  0  0
  -25.6425   -4.8766  -23.2806 C   0  0  0  0  0  0  0  0  0  0  0  0
  -24.7090   -3.7426  -21.2697 C   0  0  0  0  0  0  0  0  0  0  0  0
  -23.1783   -4.6207  -23.0266 C   0  0  0  0  0  0  0  0  0  0  0  0
  -19.8412   -6.3936  -35.0668 C   0  0  0  0  0  0  0  0  0  0  0  0
  -17.6826   -5.0126  -27.4044 N   0  0  0  0  0  0  0  0  0  0  0  0
  -19.7304   -4.5183  -28.5571 N   0  0  0  0  0  0  0  0  0  0  0  0
  -19.5543   -4.8578  -26.1791 N   0  0  0  0  0  0  0  0  0  0  0  0
  -21.8037   -4.0657  -29.5033 N   0  0  0  0  0  0  0  0  0  0  0  0
  -21.5019   -4.8798  -24.7566 N   0  0  0  0  0  0  0  0  0  0  0  0
  -24.5118   -4.0383  -22.7364 N   0  3  0  0  0  0  0  0  0  0  0  0
  -20.9895   -5.6090  -34.7647 O   0  0  0  0  0  0  0  0  0  0  0  0
  -18.8263   -6.1146  -34.2216 F   0  0  0  0  0  0  0  0  0  0  0  0
  -19.4308   -6.1001  -36.3216 F   0  0  0  0  0  0  0  0  0  0  0  0
  -20.1277   -7.7120  -35.0210 F   0  0  0  0  0  0  0  0  0  0  0  0
  -15.0533   -5.6873  -23.6500 H   0  0  0  0  0  0  0  0  0  0  0  0
  -17.0583   -5.4252  -22.2368 H   0  0  0  0  0  0  0  0  0  0  0  0
  -15.2251   -5.5108  -26.1190 H   0  0  0  0  0  0  0  0  0  0  0  0
  -19.2641   -5.0012  -23.2304 H   0  0  0  0  0  0  0  0  0  0  0  0
  -22.5696   -2.7115  -31.6588 H   0  0  0  0  0  0  0  0  0  0  0  0
  -20.5807   -6.2867  -30.3023 H   0  0  0  0  0  0  0  0  0  0  0  0
  -22.2060   -3.4004  -33.9986 H   0  0  0  0  0  0  0  0  0  0  0  0
  -20.2198   -6.9709  -32.6440 H   0  0  0  0  0  0  0  0  0  0  0  0
  -22.7735   -4.3376  -27.0272 H   0  0  0  0  0  0  0  0  0  0  0  0
  -27.1040   -4.0872  -21.9126 H   0  0  0  0  0  0  0  0  0  0  0  0
  -26.9827   -3.1834  -23.4311 H   0  0  0  0  0  0  0  0  0  0  0  0
  -27.8008   -4.7561  -23.3974 H   0  0  0  0  0  0  0  0  0  0  0  0
  -22.6402   -3.2645  -20.9200 H   0  0  0  0  0  0  0  0  0  0  0  0
  -23.6296   -1.8695  -21.3809 H   0  0  0  0  0  0  0  0  0  0  0  0
  -23.7508   -2.5416  -19.7446 H   0  0  0  0  0  0  0  0  0  0  0  0
  -23.5299   -4.8365  -25.1570 H   0  0  0  0  0  0  0  0  0  0  0  0
  -22.8077   -3.2898  -24.6786 H   0  0  0  0  0  0  0  0  0  0  0  0
  -25.4711   -4.9887  -24.3547 H   0  0  0  0  0  0  0  0  0  0  0  0
  -25.5826   -5.8529  -22.7918 H   0  0  0  0  0  0  0  0  0  0  0  0
  -25.7034   -3.3008  -21.1619 H   0  0  0  0  0  0  0  0  0  0  0  0
  -24.6690   -4.6990  -20.7410 H   0  0  0  0  0  0  0  0  0  0  0  0
  -22.4711   -4.1371  -22.3469 H   0  0  0  0  0  0  0  0  0  0  0  0
  -23.2414   -5.6880  -22.7939 H   0  0  0  0  0  0  0  0  0  0  0  0
  -22.6160   -3.5120  -29.2962 H   0  0  0  0  0  0  0  0  0  0  0  0
  -20.9599   -5.3620  -24.0821 H   0  0  0  0  0  0  0  0  0  0  0  0
  -24.5716   -3.1272  -23.2224 H   0  0  0  0  0  0  0  0  0  0  0  0
  1  2  2  0  0  0  0
  1  3  1  0  0  0  0
  2  4  1  0  0  0  0
  3  9  2  0  0  0  0
  4 10  2  0  0  0  0
  5  7  1  0  0  0  0
  5 11  2  0  0  0  0
  6  8  2  0  0  0  0
  6 11  1  0  0  0  0
  7 12  2  0  0  0  0
  8 12  1  0  0  0  0
  9 10  1  0  0  0  0
  9 24  1  0  0  0  0
 10 26  1  0  0  0  0
 11 27  1  0  0  0  0
 12 30  1  0  0  0  0
 13 24  2  0  0  0  0
 13 25  1  0  0  0  0
 13 26  1  0  0  0  0
 14 15  2  0  0  0  0
 14 16  1  0  0  0  0
 15 26  1  0  0  0  0
 15 28  1  0  0  0  0
 16 25  2  0  0  0  0
 16 27  1  0  0  0  0
 17 20  1  0  0  0  0
 18 21  1  0  0  0  0
 19 22  1  0  0  0  0
 19 28  1  0  0  0  0
 20 29  1  0  0  0  0
 21 29  1  0  0  0  0
 22 29  1  0  0  0  0
 23 30  1  0  0  0  0
 23 31  1  0  0  0  0
 23 32  1  0  0  0  0
 23 33  1  0  0  0  0
  1 34  1  0  0  0  0
  2 35  1  0  0  0  0
  3 36  1  0  0  0  0
  4 37  1  0  0  0  0
  5 38  1  0  0  0  0
  6 39  1  0  0  0  0
  7 40  1  0  0  0  0
  8 41  1  0  0  0  0
 14 42  1  0  0  0  0
 17 43  1  0  0  0  0
 17 44  1  0  0  0  0
 17 45  1  0  0  0  0
 18 46  1  0  0  0  0
 18 47  1  0  0  0  0
 18 48  1  0  0  0  0
 19 49  1  0  0  0  0
 19 50  1  0  0  0  0
 20 51  1  0  0  0  0
 20 52  1  0  0  0  0
 21 53  1  0  0  0  0
 21 54  1  0  0  0  0
 22 55  1  0  0  0  0
 22 56  1  0  0  0  0
 27 57  1  0  0  0  0
 28 58  1  0  0  0  0
 29 59  1  0  0  0  0
M  CHG  1  29   1
M  END
> <SMILES>
CCN(CC)CCNc1cc(nc2nc3ccccc3n12)Nc1ccc(cc1)OC(F)(F)F

> <FORMATTED_ID>
H3D-008854

> <MOLFORMULA>
C23H25F3N6O

> <Exact Mass>
458.2

> <XLogP>
6.11

> <TPSA_NOPS>
66.7

> <s_m_source_file>
ligprep_h3d.sdf

> <i_m_source_file_index>
2804

> <i_lp_mmshare_version>
55123

> <i_f3d_flags>
0

> <s_epik_input>
W2NIXTFbY0hdW2NIXVtjSF1jKG4yKWMxbihjMjMpYyhbTkhdW0NIMl1bQ0gyXU4oW0NIMl1bQ0gzXSlbQ0gyXVtDSDNdKVtjSF1jKG4zKVtOSF1jNFtjSF1bY0hdYyhbY0hdW2NIXTQpT0MoRikoRilG

> <s_epik_cmdline>
J2VwaWtfcHl0aG9uJywgJy1waHQnLCAnMC41JywgJy1waCcsICc3LjUnLCAnLXRuJywgJzgnLCAnLW1hJywgJzUwMCcsICctaW1hZScsICc8aW5maWxlLm1hZT4nLCAnLW9tYWUnLCAnPG91dGZpbGUubWFlPic=

> <r_lp_tautomer_probability>
1

> <r_epik_Ionization_Penalty>
0.0128736

> <r_epik_Ionization_Penalty_Charging>
0.0054488

> <r_epik_Ionization_Penalty_Neutral>
0.00742482

> <r_epik_State_Penalty>
-0

> <r_epik_Charging_Adjusted_Penalty>
0.0054488

> <i_epik_Tot_Q>
1

> <i_epik_Tot_abs_Q>
1

> <s_lp_Force_Field>
S-OPLS

> <r_lp_Energy>
56.729

> <b_lp_Chiralities_Consistent>
1

> <s_lp_Variant>
ligprep_h3d.sdf:2804-1

> <ROCS_ShapeQuery>
_7L13

> <ROCS_TanimotoCombo>
0.773 

> <ROCS_ShapeTanimoto>
0.655 

> <ROCS_ColorTanimoto>
0.118 

> <ROCS_RefTversky>
0.762 

> <ROCS_RefColorTversky>
0.233 

> <ROCS_RefTverskyCombo>
0.995 

> <ROCS_FitTversky>
0.823 

> <ROCS_FitColorTversky>
0.194 

> <ROCS_FitTverskyCombo>
1.017 

> <ROCS_ColorScore>
-2.123

> <ROCS_Overlap>
1260.644

> <ROCS_Rank>
695                 

$$$$
ligprep_h3d.sdf:2753_1809
  -OEChem-08212117123D

 68 72  0     0  0  0  0  0  0999 V2000
  -25.7845   -4.8169  -23.3122 C   0  0  0  0  0  0  0  0  0  0  0  0
  -24.7173   -4.3045  -22.5709 C   0  0  0  0  0  0  0  0  0  0  0  0
  -18.3922   -3.9906  -34.4077 C   0  0  0  0  0  0  0  0  0  0  0  0
  -18.6890   -4.6532  -35.5987 C   0  0  0  0  0  0  0  0  0  0  0  0
  -19.0170   -4.3751  -33.2213 C   0  0  0  0  0  0  0  0  0  0  0  0
  -20.2625   -5.5015  -25.7054 C   0  0  0  0  0  0  0  0  0  0  0  0
  -18.8488   -3.5733  -26.0526 C   0  0  0  0  0  0  0  0  0  0  0  0
  -19.2358   -6.3344  -26.1499 C   0  0  0  0  0  0  0  0  0  0  0  0
  -17.8220   -4.4062  -26.4971 C   0  0  0  0  0  0  0  0  0  0  0  0
  -25.6974   -4.9518  -24.7036 C   0  0  0  0  0  0  0  0  0  0  0  0
  -23.5270   -3.9091  -23.1900 C   0  0  0  0  0  0  0  0  0  0  0  0
  -20.0691   -4.1210  -25.6568 C   0  0  0  0  0  0  0  0  0  0  0  0
  -18.0155   -5.7868  -26.5457 C   0  0  0  0  0  0  0  0  0  0  0  0
  -19.6106   -5.7002  -35.6034 C   0  0  0  0  0  0  0  0  0  0  0  0
  -19.9386   -5.4221  -33.2260 C   0  0  0  0  0  0  0  0  0  0  0  0
  -24.5089   -4.5593  -25.3421 C   0  0  0  0  0  0  0  0  0  0  0  0
  -23.4628   -4.0524  -24.5764 C   0  0  0  0  0  0  0  0  0  0  0  0
  -20.2354   -6.0847  -34.4170 C   0  0  0  0  0  0  0  0  0  0  0  0
  -22.9469   -4.1101  -26.7270 C   0  0  0  0  0  0  0  0  0  0  0  0
  -22.4474   -5.7582  -29.4258 C   0  0  0  0  0  0  0  0  0  0  0  0
  -21.7195   -3.4811  -30.2068 C   0  0  0  0  0  0  0  0  0  0  0  0
  -22.7726   -6.1038  -30.8815 C   0  0  0  0  0  0  0  0  0  0  0  0
  -22.0717   -3.9079  -31.6344 C   0  0  0  0  0  0  0  0  0  0  0  0
  -22.5477   -4.2527  -29.1781 C   0  0  0  0  0  0  0  0  0  0  0  0
  -19.2215   -7.7527  -36.9899 C   0  0  0  0  0  0  0  0  0  0  0  0
  -19.9146   -6.3972  -36.8886 C   0  0  0  0  0  0  0  0  0  0  0  0
  -21.1762   -3.2217  -25.1770 C   0  0  0  0  0  0  0  0  0  0  0  0
  -20.6004   -5.8208  -31.9387 C   0  0  0  0  0  0  0  0  0  0  0  0
  -16.9175   -6.6781  -27.0194 C   0  0  0  0  0  0  0  0  0  0  0  0
  -24.1701   -4.5878  -26.6755 N   0  0  0  0  0  0  0  0  0  0  0  0
  -22.4770   -3.7735  -25.4881 N   0  0  0  0  0  0  0  0  0  0  0  0
  -21.9832   -5.3551  -31.8678 N   0  0  0  0  0  0  0  0  0  0  0  0
  -22.1405   -3.9260  -27.8342 N   0  0  0  0  0  0  0  0  0  0  0  0
  -21.1375   -7.1077  -34.4219 O   0  0  0  0  0  0  0  0  0  0  0  0
  -17.2470   -8.0037  -27.0124 F   0  0  0  0  0  0  0  0  0  0  0  0
  -16.5155   -6.4179  -28.2986 F   0  0  0  0  0  0  0  0  0  0  0  0
  -15.7919   -6.5768  -26.2541 F   0  0  0  0  0  0  0  0  0  0  0  0
  -26.6968   -5.1158  -22.8022 H   0  0  0  0  0  0  0  0  0  0  0  0
  -24.8126   -4.2114  -21.4918 H   0  0  0  0  0  0  0  0  0  0  0  0
  -17.6745   -3.1755  -34.4041 H   0  0  0  0  0  0  0  0  0  0  0  0
  -18.1971   -4.3463  -36.5178 H   0  0  0  0  0  0  0  0  0  0  0  0
  -18.7793   -3.8527  -32.2986 H   0  0  0  0  0  0  0  0  0  0  0  0
  -21.2101   -5.9370  -25.3992 H   0  0  0  0  0  0  0  0  0  0  0  0
  -18.6892   -2.4988  -26.0166 H   0  0  0  0  0  0  0  0  0  0  0  0
  -19.3950   -7.4089  -26.1827 H   0  0  0  0  0  0  0  0  0  0  0  0
  -16.8743   -3.9715  -26.8037 H   0  0  0  0  0  0  0  0  0  0  0  0
  -26.5320   -5.3509  -25.2708 H   0  0  0  0  0  0  0  0  0  0  0  0
  -22.6993   -3.5119  -22.6135 H   0  0  0  0  0  0  0  0  0  0  0  0
  -23.1557   -6.2741  -28.7696 H   0  0  0  0  0  0  0  0  0  0  0  0
  -21.4516   -6.1272  -29.1669 H   0  0  0  0  0  0  0  0  0  0  0  0
  -20.6508   -3.6220  -30.0268 H   0  0  0  0  0  0  0  0  0  0  0  0
  -21.9210   -2.4112  -30.0940 H   0  0  0  0  0  0  0  0  0  0  0  0
  -22.6572   -7.1981  -31.0395 H   0  0  0  0  0  0  0  0  0  0  0  0
  -23.8511   -5.8982  -31.0432 H   0  0  0  0  0  0  0  0  0  0  0  0
  -23.1067   -3.5660  -31.8422 H   0  0  0  0  0  0  0  0  0  0  0  0
  -21.4315   -3.3568  -32.3568 H   0  0  0  0  0  0  0  0  0  0  0  0
  -23.6119   -3.9489  -29.2823 H   0  0  0  0  0  0  0  0  0  0  0  0
  -18.1363   -7.6486  -36.8837 H   0  0  0  0  0  0  0  0  0  0  0  0
  -19.4241   -8.2187  -37.9593 H   0  0  0  0  0  0  0  0  0  0  0  0
  -19.5720   -8.4332  -36.2065 H   0  0  0  0  0  0  0  0  0  0  0  0
  -21.0012   -6.5380  -36.9993 H   0  0  0  0  0  0  0  0  0  0  0  0
  -19.6121   -5.7720  -37.7433 H   0  0  0  0  0  0  0  0  0  0  0  0
  -21.1193   -3.0676  -24.0926 H   0  0  0  0  0  0  0  0  0  0  0  0
  -21.1067   -2.2281  -25.6363 H   0  0  0  0  0  0  0  0  0  0  0  0
  -20.6056   -6.9108  -31.8286 H   0  0  0  0  0  0  0  0  0  0  0  0
  -20.0640   -5.4095  -31.0772 H   0  0  0  0  0  0  0  0  0  0  0  0
  -21.2141   -3.5435  -27.7029 H   0  0  0  0  0  0  0  0  0  0  0  0
  -21.4814   -7.2534  -33.5272 H   0  0  0  0  0  0  0  0  0  0  0  0
  1  2  2  0  0  0  0
  1 10  1  0  0  0  0
  2 11  1  0  0  0  0
  3  4  1  0  0  0  0
  3  5  2  0  0  0  0
  4 14  2  0  0  0  0
  5 15  1  0  0  0  0
  6  8  1  0  0  0  0
  6 12  2  0  0  0  0
  7  9  2  0  0  0  0
  7 12  1  0  0  0  0
  8 13  2  0  0  0  0
  9 13  1  0  0  0  0
 10 16  2  0  0  0  0
 11 17  2  0  0  0  0
 12 27  1  0  0  0  0
 13 29  1  0  0  0  0
 14 18  1  0  0  0  0
 14 26  1  0  0  0  0
 15 18  2  0  0  0  0
 15 28  1  0  0  0  0
 16 17  1  0  0  0  0
 16 30  1  0  0  0  0
 17 31  1  0  0  0  0
 18 34  1  0  0  0  0
 19 30  2  0  0  0  0
 19 31  1  0  0  0  0
 19 33  1  0  0  0  0
 20 22  1  0  0  0  0
 20 24  1  0  0  0  0
 21 23  1  0  0  0  0
 21 24  1  0  0  0  0
 22 32  1  0  0  0  0
 23 32  1  0  0  0  0
 24 33  1  0  0  0  0
 25 26  1  0  0  0  0
 27 31  1  0  0  0  0
 28 32  1  0  0  0  0
 29 35  1  0  0  0  0
 29 36  1  0  0  0  0
 29 37  1  0  0  0  0
  1 38  1  0  0  0  0
  2 39  1  0  0  0  0
  3 40  1  0  0  0  0
  4 41  1  0  0  0  0
  5 42  1  0  0  0  0
  6 43  1  0  0  0  0
  7 44  1  0  0  0  0
  8 45  1  0  0  0  0
  9 46  1  0  0  0  0
 10 47  1  0  0  0  0
 11 48  1  0  0  0  0
 20 49  1  0  0  0  0
 20 50  1  0  0  0  0
 21 51  1  0  0  0  0
 21 52  1  0  0  0  0
 22 53  1  0  0  0  0
 22 54  1  0  0  0  0
 23 55  1  0  0  0  0
 23 56  1  0  0  0  0
 24 57  1  0  0  0  0
 25 58  1  0  0  0  0
 25 59  1  0  0  0  0
 25 60  1  0  0  0  0
 26 61  1  0  0  0  0
 26 62  1  0  0  0  0
 27 63  1  0  0  0  0
 27 64  1  0  0  0  0
 28 65  1  0  0  0  0
 28 66  1  0  0  0  0
 33 67  1  0  0  0  0
 34 68  1  0  0  0  0
M  END
> <SMILES>
CCc1cccc(c1O)CN1CCC(CC1)Nc1nc2ccccc2n1Cc1ccc(cc1)C(F)(F)F

> <FORMATTED_ID>
H3D-008444

> <MOLFORMULA>
C29H31F3N4O

> <Exact Mass>
508.25

> <XLogP>
8.02

> <TPSA_NOPS>
53.3

> <s_m_source_file>
ligprep_h3d.sdf

> <i_m_source_file_index>
2753

> <i_lp_mmshare_version>
55123

> <i_f3d_flags>
0

> <s_epik_input>
W0NIM11bQ0gyXWMxW2NIXVtjSF1bY0hdYyhjMVtPSF0pW0NIMl1OMltDSDJdW0NIMl1bQ0hdKFtDSDJdW0NIMl0yKVtOSF1jKG4zKW4oYyhjMzQpW2NIXVtjSF1bY0hdW2NIXTQpW0NIMl1jNVtjSF1bY0hdYyhDKEYpKEYpRilbY0hdW2NIXTU=

> <s_epik_cmdline>
J2VwaWtfcHl0aG9uJywgJy1waHQnLCAnMC41JywgJy1waCcsICc3LjUnLCAnLXRuJywgJzgnLCAnLW1hJywgJzUwMCcsICctaW1hZScsICc8aW5maWxlLm1hZT4nLCAnLW9tYWUnLCAnPG91dGZpbGUubWFlPic=

> <r_lp_tautomer_probability>
1

> <r_epik_Ionization_Penalty>
0.714467

> <r_epik_Ionization_Penalty_Charging>
0

> <r_epik_Ionization_Penalty_Neutral>
0.714467

> <r_epik_State_Penalty>
-0

> <r_epik_Charging_Adjusted_Penalty>
0

> <i_epik_Tot_Q>
0

> <i_epik_Tot_abs_Q>
0

> <s_lp_Force_Field>
S-OPLS

> <r_lp_Energy>
33.7339

> <b_lp_Chiralities_Consistent>
1

> <s_lp_Variant>
ligprep_h3d.sdf:2753-1

> <ROCS_ShapeQuery>
_7L13

> <ROCS_TanimotoCombo>
0.728 

> <ROCS_ShapeTanimoto>
0.605 

> <ROCS_ColorTanimoto>
0.123 

> <ROCS_RefTversky>
0.762 

> <ROCS_RefColorTversky>
0.242 

> <ROCS_RefTverskyCombo>
1.004 

> <ROCS_FitTversky>
0.745 

> <ROCS_FitColorTversky>
0.201 

> <ROCS_FitTverskyCombo>
0.947 

> <ROCS_ColorScore>
-2.198

> <ROCS_Overlap>
1267.368

> <ROCS_Rank>
696                 

$$$$
ligprep_h3d.sdf:1106_1054
  -OEChem-08212117123D

 75 79  0     0  0  0  0  0  0999 V2000
  -16.3661   -4.6170  -26.1105 C   0  0  0  0  0  0  0  0  0  0  0  0
  -16.0289   -5.9568  -25.9188 C   0  0  0  0  0  0  0  0  0  0  0  0
  -17.7039   -4.2475  -26.2497 C   0  0  0  0  0  0  0  0  0  0  0  0
  -19.6156   -4.2968  -31.9687 C   0  0  0  0  0  0  0  0  0  0  0  0
  -20.2877   -6.6046  -31.7249 C   0  0  0  0  0  0  0  0  0  0  0  0
  -19.0099   -4.6019  -33.1875 C   0  0  0  0  0  0  0  0  0  0  0  0
  -19.6821   -6.9097  -32.9439 C   0  0  0  0  0  0  0  0  0  0  0  0
  -17.0296   -6.9272  -25.8664 C   0  0  0  0  0  0  0  0  0  0  0  0
  -20.7384   -4.5155  -25.1530 C   0  0  0  0  0  0  0  0  0  0  0  0
  -22.8327   -4.2831  -28.7349 C   0  0  0  0  0  0  0  0  0  0  0  0
  -20.7907   -4.7538  -27.5582 C   0  0  0  0  0  0  0  0  0  0  0  0
  -20.2545   -5.2982  -31.2373 C   0  0  0  0  0  0  0  0  0  0  0  0
  -18.7046   -5.2178  -26.1972 C   0  0  0  0  0  0  0  0  0  0  0  0
  -20.0969   -4.8277  -26.3429 C   0  0  0  0  0  0  0  0  0  0  0  0
  -20.8825   -4.9817  -29.9730 C   0  0  0  0  0  0  0  0  0  0  0  0
  -19.0431   -5.9083  -33.6751 C   0  0  0  0  0  0  0  0  0  0  0  0
  -22.2156   -4.5909  -29.9499 C   0  0  0  0  0  0  0  0  0  0  0  0
  -20.1698   -5.0635  -28.7802 C   0  0  0  0  0  0  0  0  0  0  0  0
  -22.1439   -4.3565  -27.5272 C   0  0  0  0  0  0  0  0  0  0  0  0
  -18.3674   -6.5577  -26.0056 C   0  0  0  0  0  0  0  0  0  0  0  0
  -22.0637   -4.1370  -25.2228 C   0  0  0  0  0  0  0  0  0  0  0  0
  -22.7939   -3.7968  -24.0137 C   0  0  0  0  0  0  0  0  0  0  0  0
  -20.5637   -5.8504  -39.3928 C   0  0  0  0  0  0  0  0  0  0  0  0
  -19.6458   -7.8530  -38.2178 C   0  0  0  0  0  0  0  0  0  0  0  0
  -21.5149   -6.5008  -37.1781 C   0  0  0  0  0  0  0  0  0  0  0  0
  -18.6533   -7.1785  -37.2787 C   0  0  0  0  0  0  0  0  0  0  0  0
  -20.5028   -5.8404  -36.2498 C   0  0  0  0  0  0  0  0  0  0  0  0
  -20.8876   -7.0000  -38.4806 C   0  0  0  0  0  0  0  0  0  0  0  0
  -23.0275   -4.4860  -31.2019 C   0  0  0  0  0  0  0  0  0  0  0  0
  -18.7342   -5.4939  -28.8912 C   0  0  0  0  0  0  0  0  0  0  0  0
  -18.3914   -6.2366  -34.9860 C   0  0  0  0  0  0  0  0  0  0  0  0
  -25.0371   -3.7437  -22.8930 C   0  0  0  0  0  0  0  0  0  0  0  0
  -26.4618   -4.1447  -23.2290 C   0  0  0  0  0  0  0  0  0  0  0  0
  -22.7691   -4.0529  -26.3740 N   0  0  0  0  0  0  0  0  0  0  0  0
  -24.1716   -4.0481  -24.0096 N   0  0  0  0  0  0  0  0  0  0  0  0
  -19.3547   -6.7872  -36.0015 N   0  3  0  0  0  0  0  0  0  0  0  0
  -19.6057   -6.0486  -40.1904 O   0  5  0  0  0  0  0  0  0  0  0  0
  -22.2067   -3.2861  -23.0425 O   0  0  0  0  0  0  0  0  0  0  0  0
  -21.2952   -4.8320  -39.2417 O   0  0  0  0  0  0  0  0  0  0  0  0
  -26.5025   -5.5333  -23.5323 O   0  0  0  0  0  0  0  0  0  0  0  0
  -19.3172   -7.5031  -25.9545 F   0  0  0  0  0  0  0  0  0  0  0  0
  -15.5867   -3.8616  -26.1511 H   0  0  0  0  0  0  0  0  0  0  0  0
  -14.9873   -6.2446  -25.8106 H   0  0  0  0  0  0  0  0  0  0  0  0
  -17.9505   -3.1989  -26.3987 H   0  0  0  0  0  0  0  0  0  0  0  0
  -19.5806   -3.2738  -31.6016 H   0  0  0  0  0  0  0  0  0  0  0  0
  -20.7824   -7.3960  -31.1669 H   0  0  0  0  0  0  0  0  0  0  0  0
  -18.5134   -3.8157  -33.7500 H   0  0  0  0  0  0  0  0  0  0  0  0
  -19.7132   -7.9302  -33.3165 H   0  0  0  0  0  0  0  0  0  0  0  0
  -16.7672   -7.9704  -25.7173 H   0  0  0  0  0  0  0  0  0  0  0  0
  -20.2265   -4.5639  -24.1959 H   0  0  0  0  0  0  0  0  0  0  0  0
  -23.8785   -3.9782  -28.7319 H   0  0  0  0  0  0  0  0  0  0  0  0
  -19.1384   -8.0904  -39.1609 H   0  0  0  0  0  0  0  0  0  0  0  0
  -19.9569   -8.8113  -37.7819 H   0  0  0  0  0  0  0  0  0  0  0  0
  -21.9806   -7.3473  -36.6576 H   0  0  0  0  0  0  0  0  0  0  0  0
  -22.3177   -5.7862  -37.3960 H   0  0  0  0  0  0  0  0  0  0  0  0
  -17.8478   -7.8710  -37.0125 H   0  0  0  0  0  0  0  0  0  0  0  0
  -18.2212   -6.2710  -37.7147 H   0  0  0  0  0  0  0  0  0  0  0  0
  -20.0896   -4.9178  -36.6713 H   0  0  0  0  0  0  0  0  0  0  0  0
  -20.9621   -5.6202  -35.2803 H   0  0  0  0  0  0  0  0  0  0  0  0
  -21.6328   -7.6150  -39.0158 H   0  0  0  0  0  0  0  0  0  0  0  0
  -22.9460   -3.4774  -31.6212 H   0  0  0  0  0  0  0  0  0  0  0  0
  -22.6877   -5.2078  -31.9535 H   0  0  0  0  0  0  0  0  0  0  0  0
  -24.0844   -4.7007  -31.0051 H   0  0  0  0  0  0  0  0  0  0  0  0
  -18.6667   -6.5821  -28.8153 H   0  0  0  0  0  0  0  0  0  0  0  0
  -18.3074   -5.1753  -29.8464 H   0  0  0  0  0  0  0  0  0  0  0  0
  -18.1324   -5.0423  -28.0974 H   0  0  0  0  0  0  0  0  0  0  0  0
  -17.9352   -5.3477  -35.4350 H   0  0  0  0  0  0  0  0  0  0  0  0
  -17.6044   -6.9878  -34.8593 H   0  0  0  0  0  0  0  0  0  0  0  0
  -24.9651   -2.6713  -22.6856 H   0  0  0  0  0  0  0  0  0  0  0  0
  -24.6797   -4.3017  -22.0223 H   0  0  0  0  0  0  0  0  0  0  0  0
  -26.8075   -3.5960  -24.1107 H   0  0  0  0  0  0  0  0  0  0  0  0
  -27.1432   -3.9462  -22.3953 H   0  0  0  0  0  0  0  0  0  0  0  0
  -24.6119   -4.4072  -24.8504 H   0  0  0  0  0  0  0  0  0  0  0  0
  -19.7483   -7.6456  -35.5926 H   0  0  0  0  0  0  0  0  0  0  0  0
  -27.4263   -5.7470  -23.7404 H   0  0  0  0  0  0  0  0  0  0  0  0
  1  2  2  0  0  0  0
  1  3  1  0  0  0  0
  2  8  1  0  0  0  0
  3 13  2  0  0  0  0
  4  6  1  0  0  0  0
  4 12  2  0  0  0  0
  5  7  2  0  0  0  0
  5 12  1  0  0  0  0
  6 16  2  0  0  0  0
  7 16  1  0  0  0  0
  8 20  2  0  0  0  0
  9 14  1  0  0  0  0
  9 21  2  0  0  0  0
 10 17  2  0  0  0  0
 10 19  1  0  0  0  0
 11 14  2  0  0  0  0
 11 18  1  0  0  0  0
 11 19  1  0  0  0  0
 12 15  1  0  0  0  0
 13 14  1  0  0  0  0
 13 20  1  0  0  0  0
 15 17  1  0  0  0  0
 15 18  2  0  0  0  0
 16 31  1  0  0  0  0
 17 29  1  0  0  0  0
 18 30  1  0  0  0  0
 19 34  2  0  0  0  0
 20 41  1  0  0  0  0
 21 22  1  0  0  0  0
 21 34  1  0  0  0  0
 22 35  1  0  0  0  0
 22 38  2  0  0  0  0
 23 28  1  0  0  0  0
 23 37  1  0  0  0  0
 23 39  2  0  0  0  0
 24 26  1  0  0  0  0
 24 28  1  0  0  0  0
 25 27  1  0  0  0  0
 25 28  1  0  0  0  0
 26 36  1  0  0  0  0
 27 36  1  0  0  0  0
 31 36  1  0  0  0  0
 32 33  1  0  0  0  0
 32 35  1  0  0  0  0
 33 40  1  0  0  0  0
  1 42  1  0  0  0  0
  2 43  1  0  0  0  0
  3 44  1  0  0  0  0
  4 45  1  0  0  0  0
  5 46  1  0  0  0  0
  6 47  1  0  0  0  0
  7 48  1  0  0  0  0
  8 49  1  0  0  0  0
  9 50  1  0  0  0  0
 10 51  1  0  0  0  0
 24 52  1  0  0  0  0
 24 53  1  0  0  0  0
 25 54  1  0  0  0  0
 25 55  1  0  0  0  0
 26 56  1  0  0  0  0
 26 57  1  0  0  0  0
 27 58  1  0  0  0  0
 27 59  1  0  0  0  0
 28 60  1  0  0  0  0
 29 61  1  0  0  0  0
 29 62  1  0  0  0  0
 29 63  1  0  0  0  0
 30 64  1  0  0  0  0
 30 65  1  0  0  0  0
 30 66  1  0  0  0  0
 31 67  1  0  0  0  0
 31 68  1  0  0  0  0
 32 69  1  0  0  0  0
 32 70  1  0  0  0  0
 33 71  1  0  0  0  0
 33 72  1  0  0  0  0
 35 73  1  0  0  0  0
 36 74  1  0  0  0  0
 40 75  1  0  0  0  0
M  CHG  2  36   1  37  -1
M  END
> <SMILES>
Cc1cc2nc(cc(c2c(c1-c1ccc(cc1)CN1CCC(CC1)C(=O)O)C)-c1ccccc1F)C(=O)NCCO

> <FORMATTED_ID>
H3D-006943

> <MOLFORMULA>
C33H34FN3O4

> <Exact Mass>
555.25

> <XLogP>
4.9

> <TPSA_NOPS>
102.8

> <s_m_source_file>
ligprep_h3d.sdf

> <i_m_source_file_index>
1106

> <i_lp_mmshare_version>
55123

> <i_f3d_flags>
0

> <s_epik_input>
RmMxW2NIXVtjSF1bY0hdW2NIXWMxLWMoW2NIXWMobjIpQyg9TylbTkhdW0NIMl1bQ0gyXVtPSF0pYyhjMjMpYyhbQ0gzXSljKGMoW0NIM10pW2NIXTMpLWM0W2NIXVtjSF1jKFtjSF1bY0hdNClbQ0gyXU41W0NIMl1bQ0gyXVtDSF0oW0NIMl1bQ0gyXTUpQyg9TylbT0hd

> <s_epik_cmdline>
J2VwaWtfcHl0aG9uJywgJy1waHQnLCAnMC41JywgJy1waCcsICc3LjUnLCAnLXRuJywgJzgnLCAnLW1hJywgJzUwMCcsICctaW1hZScsICc8aW5maWxlLm1hZT4nLCAnLW9tYWUnLCAnPG91dGZpbGUubWFlPic=

> <r_epik_Ionization_Penalty>
0.0153489

> <r_epik_Ionization_Penalty_Charging>
0.0151774

> <r_epik_Ionization_Penalty_Neutral>
0.00017146

> <r_epik_State_Penalty>
0.0118007

> <r_epik_Charging_Adjusted_Penalty>
0.0269781

> <i_epik_Tot_Q>
0

> <i_epik_Tot_abs_Q>
2

> <s_lp_Force_Field>
S-OPLS

> <r_lp_Energy>
72.3417

> <b_lp_Chiralities_Consistent>
1

> <s_lp_Variant>
ligprep_h3d.sdf:1106-1

> <ROCS_ShapeQuery>
_7L13

> <ROCS_TanimotoCombo>
0.656 

> <ROCS_ShapeTanimoto>
0.562 

> <ROCS_ColorTanimoto>
0.093 

> <ROCS_RefTversky>
0.762 

> <ROCS_RefColorTversky>
0.220 

> <ROCS_RefTverskyCombo>
0.982 

> <ROCS_FitTversky>
0.682 

> <ROCS_FitColorTversky>
0.139 

> <ROCS_FitTverskyCombo>
0.821 

> <ROCS_ColorScore>
-2.048

> <ROCS_Overlap>
1273.889

> <ROCS_Rank>
697                 

$$$$
ligprep_h3d.sdf:1233_1535
  -OEChem-08212117123D

 72 76  0     1  0  0  0  0  0999 V2000
  -20.1883   -4.1838  -32.3829 C   0  0  0  0  0  0  0  0  0  0  0  0
  -20.2343   -6.5691  -32.0014 C   0  0  0  0  0  0  0  0  0  0  0  0
  -19.6450   -4.3969  -33.6498 C   0  0  0  0  0  0  0  0  0  0  0  0
  -19.6911   -6.7822  -33.2683 C   0  0  0  0  0  0  0  0  0  0  0  0
  -16.5068   -5.1847  -26.6532 C   0  0  0  0  0  0  0  0  0  0  0  0
  -22.9801   -4.7842  -28.8254 C   0  0  0  0  0  0  0  0  0  0  0  0
  -20.5585   -4.2959  -25.4836 C   0  0  0  0  0  0  0  0  0  0  0  0
  -16.6287   -3.7996  -26.8731 C   0  0  0  0  0  0  0  0  0  0  0  0
  -20.7816   -4.6723  -27.8613 C   0  0  0  0  0  0  0  0  0  0  0  0
  -20.4829   -5.2699  -31.5587 C   0  0  0  0  0  0  0  0  0  0  0  0
  -21.0462   -5.0488  -30.2445 C   0  0  0  0  0  0  0  0  0  0  0  0
  -19.3965   -5.6961  -34.0925 C   0  0  0  0  0  0  0  0  0  0  0  0
  -22.4260   -4.9974  -30.0901 C   0  0  0  0  0  0  0  0  0  0  0  0
  -20.2239   -4.8867  -29.1332 C   0  0  0  0  0  0  0  0  0  0  0  0
  -22.1816   -4.6191  -27.6970 C   0  0  0  0  0  0  0  0  0  0  0  0
  -19.9773   -4.5059  -26.7258 C   0  0  0  0  0  0  0  0  0  0  0  0
  -21.9368   -4.2596  -25.4219 C   0  0  0  0  0  0  0  0  0  0  0  0
  -17.8018   -5.6341  -26.5681 C   0  0  0  0  0  0  0  0  0  0  0  0
  -22.6091   -4.0450  -24.1520 C   0  0  0  0  0  0  0  0  0  0  0  0
  -26.1773   -4.4038  -23.1333 C   0  0  0  0  0  0  0  0  0  0  0  0
  -20.7669   -5.9220  -36.8691 C   0  0  0  0  0  0  0  0  0  0  0  0
  -18.9235   -7.3875  -37.3720 C   0  0  0  0  0  0  0  0  0  0  0  0
  -21.6600   -6.7893  -37.7516 C   0  0  0  0  0  0  0  0  0  0  0  0
  -19.8599   -8.2197  -38.2435 C   0  0  0  0  0  0  0  0  0  0  0  0
  -23.3551   -5.1639  -31.2505 C   0  0  0  0  0  0  0  0  0  0  0  0
  -18.7423   -4.9543  -29.3774 C   0  0  0  0  0  0  0  0  0  0  0  0
  -18.3336   -6.9931  -26.3458 C   0  0  0  0  0  0  0  0  0  0  0  0
  -18.8115   -5.9255  -35.4561 C   0  0  0  0  0  0  0  0  0  0  0  0
  -24.2699   -5.5545  -21.7891 C   0  0  0  0  0  0  0  0  0  0  0  0
  -24.6756   -4.4854  -22.8006 C   0  0  1  0  0  0  0  0  0  0  0  0
  -17.9008   -3.3956  -26.9245 N   0  0  0  0  0  0  0  0  0  0  0  0
  -22.7485   -4.4154  -26.4928 N   0  0  0  0  0  0  0  0  0  0  0  0
  -18.5901   -4.5338  -26.7359 N   0  0  0  0  0  0  0  0  0  0  0  0
  -19.6874   -6.7386  -36.2972 N   0  0  0  0  0  0  0  0  0  0  0  0
  -23.8729   -4.6271  -23.9941 N   0  0  0  0  0  0  0  0  0  0  0  0
  -26.9467   -4.7473  -22.1889 O   0  5  0  0  0  0  0  0  0  0  0  0
  -22.0779   -3.3538  -23.2637 O   0  0  0  0  0  0  0  0  0  0  0  0
  -26.4733   -3.9939  -24.2898 O   0  0  0  0  0  0  0  0  0  0  0  0
  -20.8920   -7.3980  -38.7903 O   0  0  0  0  0  0  0  0  0  0  0  0
  -22.9895   -5.2794  -21.2319 O   0  0  0  0  0  0  0  0  0  0  0  0
  -20.3757   -3.1651  -32.0519 H   0  0  0  0  0  0  0  0  0  0  0  0
  -20.4592   -7.4260  -31.3708 H   0  0  0  0  0  0  0  0  0  0  0  0
  -19.4176   -3.5448  -34.2848 H   0  0  0  0  0  0  0  0  0  0  0  0
  -19.5012   -7.7979  -33.6054 H   0  0  0  0  0  0  0  0  0  0  0  0
  -15.6048   -5.7731  -26.5691 H   0  0  0  0  0  0  0  0  0  0  0  0
  -24.0637   -4.7463  -28.7190 H   0  0  0  0  0  0  0  0  0  0  0  0
  -19.9582   -4.1640  -24.5876 H   0  0  0  0  0  0  0  0  0  0  0  0
  -15.8435   -3.0678  -26.9981 H   0  0  0  0  0  0  0  0  0  0  0  0
  -20.3490   -5.1096  -37.4744 H   0  0  0  0  0  0  0  0  0  0  0  0
  -21.3699   -5.4746  -36.0684 H   0  0  0  0  0  0  0  0  0  0  0  0
  -18.1464   -8.0369  -36.9478 H   0  0  0  0  0  0  0  0  0  0  0  0
  -18.4322   -6.6337  -37.9979 H   0  0  0  0  0  0  0  0  0  0  0  0
  -22.1072   -7.5905  -37.1545 H   0  0  0  0  0  0  0  0  0  0  0  0
  -22.4782   -6.2080  -38.1935 H   0  0  0  0  0  0  0  0  0  0  0  0
  -19.3197   -8.7187  -39.0575 H   0  0  0  0  0  0  0  0  0  0  0  0
  -20.3389   -8.9970  -37.6397 H   0  0  0  0  0  0  0  0  0  0  0  0
  -23.5690   -4.1908  -31.7054 H   0  0  0  0  0  0  0  0  0  0  0  0
  -22.9198   -5.8203  -32.0127 H   0  0  0  0  0  0  0  0  0  0  0  0
  -24.3008   -5.6204  -30.9356 H   0  0  0  0  0  0  0  0  0  0  0  0
  -18.3970   -5.9861  -29.2750 H   0  0  0  0  0  0  0  0  0  0  0  0
  -18.4989   -4.5938  -30.3807 H   0  0  0  0  0  0  0  0  0  0  0  0
  -18.2037   -4.3245  -28.6638 H   0  0  0  0  0  0  0  0  0  0  0  0
  -18.4661   -7.1969  -25.2707 H   0  0  0  0  0  0  0  0  0  0  0  0
  -19.3101   -7.1409  -26.8378 H   0  0  0  0  0  0  0  0  0  0  0  0
  -17.6657   -7.7706  -26.7546 H   0  0  0  0  0  0  0  0  0  0  0  0
  -18.6414   -4.9724  -35.9686 H   0  0  0  0  0  0  0  0  0  0  0  0
  -17.8447   -6.4354  -35.3883 H   0  0  0  0  0  0  0  0  0  0  0  0
  -24.9932   -5.6284  -20.9701 H   0  0  0  0  0  0  0  0  0  0  0  0
  -24.2109   -6.5358  -22.2721 H   0  0  0  0  0  0  0  0  0  0  0  0
  -24.4129   -3.5071  -22.3779 H   0  0  0  0  0  0  0  0  0  0  0  0
  -24.2880   -5.1284  -24.7726 H   0  0  0  0  0  0  0  0  0  0  0  0
  -22.3614   -5.2664  -21.9713 H   0  0  0  0  0  0  0  0  0  0  0  0
  1  3  1  0  0  0  0
  1 10  2  0  0  0  0
  2  4  2  0  0  0  0
  2 10  1  0  0  0  0
  3 12  2  0  0  0  0
  4 12  1  0  0  0  0
  5  8  1  0  0  0  0
  5 18  2  0  0  0  0
  6 13  2  0  0  0  0
  6 15  1  0  0  0  0
  7 16  1  0  0  0  0
  7 17  2  0  0  0  0
  8 31  2  0  0  0  0
  9 14  1  0  0  0  0
  9 15  1  0  0  0  0
  9 16  2  0  0  0  0
 10 11  1  0  0  0  0
 11 13  1  0  0  0  0
 11 14  2  0  0  0  0
 12 28  1  0  0  0  0
 13 25  1  0  0  0  0
 14 26  1  0  0  0  0
 15 32  2  0  0  0  0
 16 33  1  0  0  0  0
 17 19  1  0  0  0  0
 17 32  1  0  0  0  0
 18 27  1  0  0  0  0
 18 33  1  0  0  0  0
 19 35  1  0  0  0  0
 19 37  2  0  0  0  0
 20 30  1  0  0  0  0
 20 36  1  0  0  0  0
 20 38  2  0  0  0  0
 21 23  1  0  0  0  0
 21 34  1  0  0  0  0
 22 24  1  0  0  0  0
 22 34  1  0  0  0  0
 23 39  1  0  0  0  0
 24 39  1  0  0  0  0
 28 34  1  0  0  0  0
 29 30  1  0  0  0  0
 29 40  1  0  0  0  0
 30 35  1  0  0  0  0
 31 33  1  0  0  0  0
  1 41  1  0  0  0  0
  2 42  1  0  0  0  0
  3 43  1  0  0  0  0
  4 44  1  0  0  0  0
  5 45  1  0  0  0  0
  6 46  1  0  0  0  0
  7 47  1  0  0  0  0
  8 48  1  0  0  0  0
 21 49  1  0  0  0  0
 21 50  1  0  0  0  0
 22 51  1  0  0  0  0
 22 52  1  0  0  0  0
 23 53  1  0  0  0  0
 23 54  1  0  0  0  0
 24 55  1  0  0  0  0
 24 56  1  0  0  0  0
 25 57  1  0  0  0  0
 25 58  1  0  0  0  0
 25 59  1  0  0  0  0
 26 60  1  0  0  0  0
 26 61  1  0  0  0  0
 26 62  1  0  0  0  0
 27 63  1  0  0  0  0
 27 64  1  0  0  0  0
 27 65  1  0  0  0  0
 28 66  1  0  0  0  0
 28 67  1  0  0  0  0
 29 68  1  0  0  0  0
 29 69  1  0  0  0  0
 30 70  1  0  0  0  0
 35 71  1  0  0  0  0
 40 72  1  0  0  0  0
M  CHG  1  36  -1
M  END
> <SMILES>
Cc1cc2nc(cc(c2c(c1-c1ccc(cc1)CN1CCOCC1)C)-n1nccc1C)C(=O)NC(CO)C(=O)O

> <FORMATTED_ID>
H3D-008427

> <MOLFORMULA>
C30H33N5O5

> <Exact Mass>
543.25

> <XLogP>
2.14

> <TPSA_NOPS>
129.8

> <s_m_source_file>
ligprep_h3d.sdf

> <i_m_source_file_index>
1233

> <i_lp_mmshare_version>
55123

> <i_f3d_flags>
0

> <s_epik_input>
W09IXVtDSDJdW0NASF0oQyg9TylbT0hdKVtOSF1DKD1PKWMobjEpW2NIXWMoLW4ybltjSF1bY0hdYzJbQ0gzXSljKGMxMyljKFtDSDNdKWMoYyhbQ0gzXSlbY0hdMyktYzRbY0hdW2NIXWMoW2NIXVtjSF00KVtDSDJdTjVbQ0gyXVtDSDJdT1tDSDJdW0NIMl01

> <s_epik_cmdline>
J2VwaWtfcHl0aG9uJywgJy1waHQnLCAnMC41JywgJy1waCcsICc3LjUnLCAnLXRuJywgJzgnLCAnLW1hJywgJzUwMCcsICctaW1hZScsICc8aW5maWxlLm1hZT4nLCAnLW9tYWUnLCAnPG91dGZpbGUubWFlPic=

> <r_lp_tautomer_probability>
1

> <r_epik_Ionization_Penalty>
0.105591

> <r_epik_Ionization_Penalty_Charging>
3.07622e-05

> <r_epik_Ionization_Penalty_Neutral>
0.10556

> <r_epik_State_Penalty>
0.095414

> <r_epik_Charging_Adjusted_Penalty>
0.0954448

> <i_epik_Tot_Q>
-1

> <i_epik_Tot_abs_Q>
1

> <s_lp_Force_Field>
S-OPLS

> <r_lp_Energy>
72.7601

> <b_lp_Chiralities_Consistent>
1

> <s_lp_Variant>
ligprep_h3d.sdf:1233-1

> <ROCS_ShapeQuery>
_7L13

> <ROCS_TanimotoCombo>
0.702 

> <ROCS_ShapeTanimoto>
0.569 

> <ROCS_ColorTanimoto>
0.134 

> <ROCS_RefTversky>
0.762 

> <ROCS_RefColorTversky>
0.316 

> <ROCS_RefTverskyCombo>
1.078 

> <ROCS_FitTversky>
0.691 

> <ROCS_FitColorTversky>
0.188 

> <ROCS_FitTverskyCombo>
0.880 

> <ROCS_ColorScore>
-2.952

> <ROCS_Overlap>
1272.842

> <ROCS_Rank>
698                 

$$$$
ligprep_h3d.sdf:5179_1134
  -OEChem-08212117123D

 67 71  0     1  0  0  0  0  0999 V2000
  -24.9894   -4.7529  -22.8968 C   0  0  0  0  0  0  0  0  0  0  0  0
  -15.5029   -5.0258  -26.5184 C   0  0  0  0  0  0  0  0  0  0  0  0
  -25.1309   -5.7565  -23.8551 C   0  0  0  0  0  0  0  0  0  0  0  0
  -24.3827   -3.5439  -23.2372 C   0  0  0  0  0  0  0  0  0  0  0  0
  -15.9846   -3.8776  -25.8899 C   0  0  0  0  0  0  0  0  0  0  0  0
  -16.3555   -6.1060  -26.7464 C   0  0  0  0  0  0  0  0  0  0  0  0
  -21.2451   -4.0256  -34.0640 C   0  0  0  0  0  0  0  0  0  0  0  0
  -24.6656   -5.5511  -25.1539 C   0  0  0  0  0  0  0  0  0  0  0  0
  -23.9173   -3.3386  -24.5360 C   0  0  0  0  0  0  0  0  0  0  0  0
  -20.2518   -4.3662  -34.9821 C   0  0  0  0  0  0  0  0  0  0  0  0
  -17.3190   -3.8095  -25.4892 C   0  0  0  0  0  0  0  0  0  0  0  0
  -17.6899   -6.0379  -26.3458 C   0  0  0  0  0  0  0  0  0  0  0  0
  -21.3544   -6.3245  -33.3292 C   0  0  0  0  0  0  0  0  0  0  0  0
  -21.7964   -5.0047  -33.2375 C   0  0  0  0  0  0  0  0  0  0  0  0
  -24.0588   -4.3422  -25.4944 C   0  0  0  0  0  0  0  0  0  0  0  0
  -19.8098   -5.6860  -35.0738 C   0  0  0  0  0  0  0  0  0  0  0  0
  -20.3611   -6.6652  -34.2473 C   0  0  0  0  0  0  0  0  0  0  0  0
  -18.1716   -4.8897  -25.7172 C   0  0  0  0  0  0  0  0  0  0  0  0
  -23.6048   -4.9698  -27.9529 C   0  0  0  0  0  0  0  0  0  0  0  0
  -23.2321   -2.9479  -27.4988 C   0  0  0  0  0  0  0  0  0  0  0  0
  -21.2705   -4.6715  -30.2955 C   0  0  0  0  0  0  0  0  0  0  0  0
  -23.3914   -3.4884  -30.0519 C   0  0  0  0  0  0  0  0  0  0  0  0
  -21.3020   -4.0124  -28.9243 C   0  0  1  0  0  0  0  0  0  0  0  0
  -22.8087   -3.8502  -28.6823 C   0  0  0  0  0  0  0  0  0  0  0  0
  -19.2677   -6.3951  -37.2781 C   0  0  0  0  0  0  0  0  0  0  0  0
  -22.8629   -4.6380  -32.2481 C   0  0  0  0  0  0  0  0  0  0  0  0
  -20.5435   -4.8054  -27.8753 C   0  0  0  0  0  0  0  0  0  0  0  0
  -23.5911   -4.1354  -26.7996 N   0  0  0  0  0  0  0  0  0  0  0  0
  -20.6032   -4.1370  -26.6154 N   0  0  0  0  0  0  0  0  0  0  0  0
  -22.3310   -3.9098  -31.0569 N   0  3  2  0  0  0  0  0  0  0  0  0
  -20.3453   -6.1605  -25.0312 O   0  0  0  0  0  0  0  0  0  0  0  0
  -19.9241   -3.8597  -24.1074 O   0  0  0  0  0  0  0  0  0  0  0  0
  -19.9382   -7.9576  -34.3283 O   0  0  0  0  0  0  0  0  0  0  0  0
  -18.8391   -6.0058  -35.9748 O   0  0  0  0  0  0  0  0  0  0  0  0
  -19.8618   -4.8042  -25.2063 S   0  0  0  0  0  0  0  0  0  0  0  0
  -25.3517   -4.9130  -21.8853 H   0  0  0  0  0  0  0  0  0  0  0  0
  -14.4638   -5.0798  -26.8300 H   0  0  0  0  0  0  0  0  0  0  0  0
  -25.6032   -6.6976  -23.5899 H   0  0  0  0  0  0  0  0  0  0  0  0
  -24.2726   -2.7625  -22.4907 H   0  0  0  0  0  0  0  0  0  0  0  0
  -15.3208   -3.0368  -25.7112 H   0  0  0  0  0  0  0  0  0  0  0  0
  -15.9800   -7.0000  -27.2351 H   0  0  0  0  0  0  0  0  0  0  0  0
  -21.5821   -2.9946  -33.9983 H   0  0  0  0  0  0  0  0  0  0  0  0
  -24.7806   -6.3395  -25.8933 H   0  0  0  0  0  0  0  0  0  0  0  0
  -23.4463   -2.3923  -24.7899 H   0  0  0  0  0  0  0  0  0  0  0  0
  -19.8270   -3.5986  -35.6231 H   0  0  0  0  0  0  0  0  0  0  0  0
  -17.6838   -2.9105  -24.9995 H   0  0  0  0  0  0  0  0  0  0  0  0
  -18.3449   -6.8857  -26.5272 H   0  0  0  0  0  0  0  0  0  0  0  0
  -21.7821   -7.0896  -32.6857 H   0  0  0  0  0  0  0  0  0  0  0  0
  -24.6151   -5.1805  -28.3178 H   0  0  0  0  0  0  0  0  0  0  0  0
  -23.0826   -5.9151  -27.7728 H   0  0  0  0  0  0  0  0  0  0  0  0
  -22.4200   -2.4020  -27.0058 H   0  0  0  0  0  0  0  0  0  0  0  0
  -24.0787   -2.2767  -27.6690 H   0  0  0  0  0  0  0  0  0  0  0  0
  -20.3179   -4.5569  -30.8199 H   0  0  0  0  0  0  0  0  0  0  0  0
  -21.5754   -5.7233  -30.2633 H   0  0  0  0  0  0  0  0  0  0  0  0
  -24.3233   -4.0145  -30.2850 H   0  0  0  0  0  0  0  0  0  0  0  0
  -23.5248   -2.4099  -30.1889 H   0  0  0  0  0  0  0  0  0  0  0  0
  -20.8471   -3.0124  -29.0012 H   0  0  0  0  0  0  0  0  0  0  0  0
  -18.3958   -6.6227  -37.8963 H   0  0  0  0  0  0  0  0  0  0  0  0
  -19.8462   -5.5851  -37.7295 H   0  0  0  0  0  0  0  0  0  0  0  0
  -19.8949   -7.2857  -37.1948 H   0  0  0  0  0  0  0  0  0  0  0  0
  -23.6181   -3.9878  -32.7028 H   0  0  0  0  0  0  0  0  0  0  0  0
  -23.3745   -5.5294  -31.8693 H   0  0  0  0  0  0  0  0  0  0  0  0
  -21.0088   -5.7901  -27.8024 H   0  0  0  0  0  0  0  0  0  0  0  0
  -19.5075   -4.8911  -28.2082 H   0  0  0  0  0  0  0  0  0  0  0  0
  -20.7294   -3.0980  -26.6138 H   0  0  0  0  0  0  0  0  0  0  0  0
  -21.8853   -3.0480  -31.4017 H   0  0  0  0  0  0  0  0  0  0  0  0
  -20.4190   -8.5082  -33.6906 H   0  0  0  0  0  0  0  0  0  0  0  0
  1  3  2  0  0  0  0
  1  4  1  0  0  0  0
  2  5  2  0  0  0  0
  2  6  1  0  0  0  0
  3  8  1  0  0  0  0
  4  9  2  0  0  0  0
  5 11  1  0  0  0  0
  6 12  2  0  0  0  0
  7 10  1  0  0  0  0
  7 14  2  0  0  0  0
  8 15  2  0  0  0  0
  9 15  1  0  0  0  0
 10 16  2  0  0  0  0
 11 18  2  0  0  0  0
 12 18  1  0  0  0  0
 13 14  1  0  0  0  0
 13 17  2  0  0  0  0
 14 26  1  0  0  0  0
 15 28  1  0  0  0  0
 16 17  1  0  0  0  0
 16 34  1  0  0  0  0
 17 33  1  0  0  0  0
 18 35  1  0  0  0  0
 19 24  1  0  0  0  0
 19 28  1  0  0  0  0
 20 24  1  0  0  0  0
 20 28  1  0  0  0  0
 21 23  1  0  0  0  0
 21 30  1  0  0  0  0
 22 24  1  0  0  0  0
 22 30  1  0  0  0  0
 23 24  1  0  0  0  0
 23 27  1  0  0  0  0
 25 34  1  0  0  0  0
 26 30  1  0  0  0  0
 27 29  1  0  0  0  0
 29 35  1  0  0  0  0
 31 35  2  0  0  0  0
 32 35  2  0  0  0  0
  1 36  1  0  0  0  0
  2 37  1  0  0  0  0
  3 38  1  0  0  0  0
  4 39  1  0  0  0  0
  5 40  1  0  0  0  0
  6 41  1  0  0  0  0
  7 42  1  0  0  0  0
  8 43  1  0  0  0  0
  9 44  1  0  0  0  0
 10 45  1  0  0  0  0
 11 46  1  0  0  0  0
 12 47  1  0  0  0  0
 13 48  1  0  0  0  0
 19 49  1  0  0  0  0
 19 50  1  0  0  0  0
 20 51  1  0  0  0  0
 20 52  1  0  0  0  0
 21 53  1  0  0  0  0
 21 54  1  0  0  0  0
 22 55  1  0  0  0  0
 22 56  1  0  0  0  0
 23 57  1  0  0  0  0
 25 58  1  0  0  0  0
 25 59  1  0  0  0  0
 25 60  1  0  0  0  0
 26 61  1  0  0  0  0
 26 62  1  0  0  0  0
 27 63  1  0  0  0  0
 27 64  1  0  0  0  0
 29 65  1  0  0  0  0
 30 66  1  0  0  0  0
 33 67  1  0  0  0  0
M  CHG  1  30   1
M  END
> <SMILES>
COc1ccc(cc1O)CN1CC(CNS(=O)(=O)c2ccccc2)C2(C1)CN(C2)c1ccccc1

> <FORMATTED_ID>
H3D-013996

> <MOLFORMULA>
C27H31N3O4S

> <Exact Mass>
493.2

> <XLogP>
3.08

> <TPSA_NOPS>
90.5

> <s_m_source_file>
ligprep_h3d.sdf

> <i_m_source_file_index>
5179

> <i_lp_mmshare_version>
55123

> <i_f3d_flags>
0

> <s_epik_input>
W0NIM11PYzFbY0hdW2NIXWMoW2NIXWMxW09IXSlbQ0gyXU4oW0NIMl0yKVtDSDJdW0NASF0oW0NIMl1bTkhdUyg9TykoPU8pYzNbY0hdW2NIXVtjSF1bY0hdW2NIXTMpQzI0W0NIMl1OKFtDSDJdNCljNVtjSF1bY0hdW2NIXVtjSF1bY0hdNQ==

> <s_epik_cmdline>
J2VwaWtfcHl0aG9uJywgJy1waHQnLCAnMC41JywgJy1waCcsICc3LjUnLCAnLXRuJywgJzgnLCAnLW1hJywgJzUwMCcsICctaW1hZScsICc8aW5maWxlLm1hZT4nLCAnLW9tYWUnLCAnPG91dGZpbGUubWFlPic=

> <r_lp_tautomer_probability>
1

> <r_epik_Ionization_Penalty>
0.0589115

> <r_epik_Ionization_Penalty_Charging>
0.031602

> <r_epik_Ionization_Penalty_Neutral>
0.0273095

> <r_epik_State_Penalty>
-0

> <r_epik_Charging_Adjusted_Penalty>
0.031602

> <i_epik_Tot_Q>
1

> <i_epik_Tot_abs_Q>
1

> <s_lp_Force_Field>
S-OPLS

> <r_lp_Energy>
27.2132

> <b_lp_Chiralities_Consistent>
1

> <s_lp_Variant>
ligprep_h3d.sdf:5179-1

> <ROCS_ShapeQuery>
_7L13

> <ROCS_TanimotoCombo>
0.699 

> <ROCS_ShapeTanimoto>
0.643 

> <ROCS_ColorTanimoto>
0.055 

> <ROCS_RefTversky>
0.762 

> <ROCS_RefColorTversky>
0.126 

> <ROCS_RefTverskyCombo>
0.888 

> <ROCS_FitTversky>
0.805 

> <ROCS_FitColorTversky>
0.090 

> <ROCS_FitTverskyCombo>
0.895 

> <ROCS_ColorScore>
-1.156

> <ROCS_Overlap>
1261.857

> <ROCS_Rank>
699                 

$$$$
ligprep_h3d.sdf:5051_1781
  -OEChem-08212117123D

 64 68  0     0  0  0  0  0  0999 V2000
  -19.2095   -5.5567  -34.7688 C   0  0  0  0  0  0  0  0  0  0  0  0
  -20.2120   -6.4772  -34.4631 C   0  0  0  0  0  0  0  0  0  0  0  0
  -19.1276   -4.3553  -34.0648 C   0  0  0  0  0  0  0  0  0  0  0  0
  -21.1326   -6.1962  -33.4536 C   0  0  0  0  0  0  0  0  0  0  0  0
  -20.0482   -4.0743  -33.0552 C   0  0  0  0  0  0  0  0  0  0  0  0
  -18.7416   -6.3380  -25.3559 C   0  0  0  0  0  0  0  0  0  0  0  0
  -23.6166   -3.9171  -27.7490 C   0  0  0  0  0  0  0  0  0  0  0  0
  -20.9222   -4.3916  -28.4145 C   0  0  0  0  0  0  0  0  0  0  0  0
  -18.3462   -4.0365  -25.9310 C   0  0  0  0  0  0  0  0  0  0  0  0
  -17.3767   -6.4661  -25.1548 C   0  0  0  0  0  0  0  0  0  0  0  0
  -22.6973   -4.3073  -26.7825 C   0  0  0  0  0  0  0  0  0  0  0  0
  -21.0507   -4.9948  -32.7496 C   0  0  0  0  0  0  0  0  0  0  0  0
  -19.2275   -5.0968  -25.7513 C   0  0  0  0  0  0  0  0  0  0  0  0
  -21.3492   -4.5293  -27.0995 C   0  0  0  0  0  0  0  0  0  0  0  0
  -23.1801   -3.7667  -29.0637 C   0  0  0  0  0  0  0  0  0  0  0  0
  -21.8420   -4.0068  -29.3949 C   0  0  0  0  0  0  0  0  0  0  0  0
  -16.9990   -4.2675  -25.7040 C   0  0  0  0  0  0  0  0  0  0  0  0
  -23.0591   -3.1560  -24.5895 C   0  0  0  0  0  0  0  0  0  0  0  0
  -24.1474   -5.3987  -25.0033 C   0  0  0  0  0  0  0  0  0  0  0  0
  -21.5919   -5.2414  -24.9268 C   0  0  0  0  0  0  0  0  0  0  0  0
  -23.3707   -3.2869  -23.1021 C   0  0  0  0  0  0  0  0  0  0  0  0
  -24.4073   -5.5355  -23.5087 C   0  0  0  0  0  0  0  0  0  0  0  0
  -22.9234   -4.5167  -25.3050 C   0  0  0  0  0  0  0  0  0  0  0  0
  -16.0242   -3.1525  -25.8877 C   0  0  0  0  0  0  0  0  0  0  0  0
  -24.9879   -4.2368  -21.4620 C   0  0  0  0  0  0  0  0  0  0  0  0
  -24.2175   -1.9856  -30.2499 C   0  0  0  0  0  0  0  0  0  0  0  0
  -22.0408   -4.6918  -31.6636 C   0  0  0  0  0  0  0  0  0  0  0  0
  -16.4897   -5.4593  -25.3193 N   0  0  0  0  0  0  0  0  0  0  0  0
  -20.5970   -4.9162  -25.9673 N   0  0  0  0  0  0  0  0  0  0  0  0
  -24.5839   -4.1617  -22.9090 N   0  3  0  0  0  0  0  0  0  0  0  0
  -24.0700   -3.3857  -30.0230 O   0  0  0  0  0  0  0  0  0  0  0  0
  -21.4179   -3.8651  -30.6835 O   0  0  0  0  0  0  0  0  0  0  0  0
  -18.4919   -5.7762  -35.5540 H   0  0  0  0  0  0  0  0  0  0  0  0
  -20.2752   -7.4132  -35.0104 H   0  0  0  0  0  0  0  0  0  0  0  0
  -18.3466   -3.6389  -34.3017 H   0  0  0  0  0  0  0  0  0  0  0  0
  -21.9104   -6.9192  -33.2224 H   0  0  0  0  0  0  0  0  0  0  0  0
  -19.9767   -3.1357  -32.5121 H   0  0  0  0  0  0  0  0  0  0  0  0
  -19.4018   -7.1858  -25.2066 H   0  0  0  0  0  0  0  0  0  0  0  0
  -24.6529   -3.7271  -27.4887 H   0  0  0  0  0  0  0  0  0  0  0  0
  -19.8855   -4.5736  -28.6832 H   0  0  0  0  0  0  0  0  0  0  0  0
  -18.7023   -3.0587  -26.2403 H   0  0  0  0  0  0  0  0  0  0  0  0
  -16.9477   -7.4139  -24.8467 H   0  0  0  0  0  0  0  0  0  0  0  0
  -23.8598   -2.5691  -25.0607 H   0  0  0  0  0  0  0  0  0  0  0  0
  -22.1433   -2.5626  -24.7098 H   0  0  0  0  0  0  0  0  0  0  0  0
  -24.0225   -6.3967  -25.4427 H   0  0  0  0  0  0  0  0  0  0  0  0
  -25.0455   -4.9770  -25.4739 H   0  0  0  0  0  0  0  0  0  0  0  0
  -21.2227   -4.9508  -23.9371 H   0  0  0  0  0  0  0  0  0  0  0  0
  -21.7361   -6.3310  -24.9136 H   0  0  0  0  0  0  0  0  0  0  0  0
  -22.5448   -3.7347  -22.5401 H   0  0  0  0  0  0  0  0  0  0  0  0
  -23.6038   -2.3057  -22.6747 H   0  0  0  0  0  0  0  0  0  0  0  0
  -25.3337   -6.0918  -23.3315 H   0  0  0  0  0  0  0  0  0  0  0  0
  -23.5812   -6.0276  -22.9841 H   0  0  0  0  0  0  0  0  0  0  0  0
  -15.8955   -2.6005  -24.9490 H   0  0  0  0  0  0  0  0  0  0  0  0
  -15.0445   -3.5297  -26.2075 H   0  0  0  0  0  0  0  0  0  0  0  0
  -16.3633   -2.4515  -26.6610 H   0  0  0  0  0  0  0  0  0  0  0  0
  -24.1735   -4.7121  -20.9122 H   0  0  0  0  0  0  0  0  0  0  0  0
  -25.1577   -3.2178  -21.1092 H   0  0  0  0  0  0  0  0  0  0  0  0
  -25.9018   -4.8308  -21.4007 H   0  0  0  0  0  0  0  0  0  0  0  0
  -24.9558   -1.8193  -31.0382 H   0  0  0  0  0  0  0  0  0  0  0  0
  -23.2544   -1.5596  -30.5422 H   0  0  0  0  0  0  0  0  0  0  0  0
  -24.5592   -1.5101  -29.3276 H   0  0  0  0  0  0  0  0  0  0  0  0
  -22.9164   -4.1709  -32.0660 H   0  0  0  0  0  0  0  0  0  0  0  0
  -22.3880   -5.6148  -31.1870 H   0  0  0  0  0  0  0  0  0  0  0  0
  -25.3656   -3.7114  -23.4046 H   0  0  0  0  0  0  0  0  0  0  0  0
  1  2  2  0  0  0  0
  1  3  1  0  0  0  0
  2  4  1  0  0  0  0
  3  5  2  0  0  0  0
  4 12  2  0  0  0  0
  5 12  1  0  0  0  0
  6 10  1  0  0  0  0
  6 13  2  0  0  0  0
  7 11  1  0  0  0  0
  7 15  2  0  0  0  0
  8 14  1  0  0  0  0
  8 16  2  0  0  0  0
  9 13  1  0  0  0  0
  9 17  2  0  0  0  0
 10 28  2  0  0  0  0
 11 14  2  0  0  0  0
 11 23  1  0  0  0  0
 12 27  1  0  0  0  0
 13 29  1  0  0  0  0
 14 29  1  0  0  0  0
 15 16  1  0  0  0  0
 15 31  1  0  0  0  0
 16 32  1  0  0  0  0
 17 24  1  0  0  0  0
 17 28  1  0  0  0  0
 18 21  1  0  0  0  0
 18 23  1  0  0  0  0
 19 22  1  0  0  0  0
 19 23  1  0  0  0  0
 20 23  1  0  0  0  0
 20 29  1  0  0  0  0
 21 30  1  0  0  0  0
 22 30  1  0  0  0  0
 25 30  1  0  0  0  0
 26 31  1  0  0  0  0
 27 32  1  0  0  0  0
  1 33  1  0  0  0  0
  2 34  1  0  0  0  0
  3 35  1  0  0  0  0
  4 36  1  0  0  0  0
  5 37  1  0  0  0  0
  6 38  1  0  0  0  0
  7 39  1  0  0  0  0
  8 40  1  0  0  0  0
  9 41  1  0  0  0  0
 10 42  1  0  0  0  0
 18 43  1  0  0  0  0
 18 44  1  0  0  0  0
 19 45  1  0  0  0  0
 19 46  1  0  0  0  0
 20 47  1  0  0  0  0
 20 48  1  0  0  0  0
 21 49  1  0  0  0  0
 21 50  1  0  0  0  0
 22 51  1  0  0  0  0
 22 52  1  0  0  0  0
 24 53  1  0  0  0  0
 24 54  1  0  0  0  0
 24 55  1  0  0  0  0
 25 56  1  0  0  0  0
 25 57  1  0  0  0  0
 25 58  1  0  0  0  0
 26 59  1  0  0  0  0
 26 60  1  0  0  0  0
 26 61  1  0  0  0  0
 27 62  1  0  0  0  0
 27 63  1  0  0  0  0
 30 64  1  0  0  0  0
M  CHG  1  30   1
M  END
> <SMILES>
COc1cc2c(cc1OCc1ccccc1)N(CC12CCN(C)CC1)c1ccnc(c1)C

> <FORMATTED_ID>
H3D-009399

> <MOLFORMULA>
C27H31N3O2

> <Exact Mass>
429.24

> <XLogP>
5.09

> <TPSA_NOPS>
37.8

> <s_m_source_file>
ligprep_h3d.sdf

> <i_m_source_file_index>
5051

> <i_lp_mmshare_version>
55123

> <i_f3d_flags>
0

> <s_epik_input>
W2NIXTFbY0hdW2NIXVtjSF1bY0hdYzFbQ0gyXU9jKGMoW2NIXTIpT1tDSDNdKVtjSF1jKGMyQzM0W0NIMl1bQ0gyXU4oW0NIM10pW0NIMl1bQ0gyXTQpTihbQ0gyXTMpYzVbY0hdW2NIXW5jKFtjSF01KVtDSDNd

> <s_epik_cmdline>
J2VwaWtfcHl0aG9uJywgJy1waHQnLCAnMC41JywgJy1waCcsICc3LjUnLCAnLXRuJywgJzgnLCAnLW1hJywgJzUwMCcsICctaW1hZScsICc8aW5maWxlLm1hZT4nLCAnLW9tYWUnLCAnPG91dGZpbGUubWFlPic=

> <r_lp_tautomer_probability>
1

> <r_epik_Ionization_Penalty>
0.400693

> <r_epik_Ionization_Penalty_Charging>
0.00689193

> <r_epik_Ionization_Penalty_Neutral>
0.393801

> <r_epik_State_Penalty>
0.392685

> <r_epik_Charging_Adjusted_Penalty>
0.399577

> <i_epik_Tot_Q>
1

> <i_epik_Tot_abs_Q>
1

> <s_lp_Force_Field>
S-OPLS

> <r_lp_Energy>
68.1508

> <b_lp_Chiralities_Consistent>
1

> <s_lp_Variant>
ligprep_h3d.sdf:5051-1

> <ROCS_ShapeQuery>
_7L13

> <ROCS_TanimotoCombo>
0.782 

> <ROCS_ShapeTanimoto>
0.674 

> <ROCS_ColorTanimoto>
0.109 

> <ROCS_RefTversky>
0.762 

> <ROCS_RefColorTversky>
0.206 

> <ROCS_RefTverskyCombo>
0.968 

> <ROCS_FitTversky>
0.853 

> <ROCS_FitColorTversky>
0.187 

> <ROCS_FitTverskyCombo>
1.040 

> <ROCS_ColorScore>
-1.863

> <ROCS_Overlap>
1258.044

> <ROCS_Rank>
700                 

$$$$
ligprep_h3d.sdf:2059_1187
  -OEChem-08212117123D

 51 53  0     0  0  0  0  0  0999 V2000
  -18.7894   -4.6592  -36.3237 C   0  0  0  0  0  0  0  0  0  0  0  0
  -25.4780   -5.1344  -23.0611 C   0  0  0  0  0  0  0  0  0  0  0  0
  -19.0682   -3.6665  -35.3843 C   0  0  0  0  0  0  0  0  0  0  0  0
  -26.0543   -5.4103  -24.3010 C   0  0  0  0  0  0  0  0  0  0  0  0
  -19.2009   -5.9721  -36.0941 C   0  0  0  0  0  0  0  0  0  0  0  0
  -24.2467   -4.4825  -22.9939 C   0  0  0  0  0  0  0  0  0  0  0  0
  -19.7585   -3.9867  -34.2153 C   0  0  0  0  0  0  0  0  0  0  0  0
  -25.3993   -5.0343  -25.4737 C   0  0  0  0  0  0  0  0  0  0  0  0
  -18.6428   -5.9616  -28.3398 C   0  0  0  0  0  0  0  0  0  0  0  0
  -19.8913   -6.2923  -34.9251 C   0  0  0  0  0  0  0  0  0  0  0  0
  -23.5917   -4.1065  -24.1666 C   0  0  0  0  0  0  0  0  0  0  0  0
  -20.1701   -5.2996  -33.9857 C   0  0  0  0  0  0  0  0  0  0  0  0
  -24.1679   -4.3824  -25.4065 C   0  0  0  0  0  0  0  0  0  0  0  0
  -18.9646   -5.1330  -27.2936 C   0  0  0  0  0  0  0  0  0  0  0  0
  -20.5518   -5.0550  -28.6711 C   0  0  0  0  0  0  0  0  0  0  0  0
  -20.3143   -7.6889  -34.7079 C   0  0  0  0  0  0  0  0  0  0  0  0
  -22.2903   -3.4186  -24.0661 C   0  0  0  0  0  0  0  0  0  0  0  0
  -21.2192   -4.7251  -31.7690 C   0  0  0  0  0  0  0  0  0  0  0  0
  -23.5981   -4.6450  -27.8460 C   0  0  0  0  0  0  0  0  0  0  0  0
  -21.9634   -5.4612  -30.6718 C   0  0  0  0  0  0  0  0  0  0  0  0
  -22.7486   -3.9170  -28.8697 C   0  0  0  0  0  0  0  0  0  0  0  0
  -18.1873   -4.8329  -26.0836 C   0  0  0  0  0  0  0  0  0  0  0  0
  -20.1889   -4.5547  -27.5117 N   0  0  0  0  0  0  0  0  0  0  0  0
  -20.8606   -5.5977  -32.8076 N   0  0  0  0  0  0  0  0  0  0  0  0
  -23.5216   -4.0100  -26.6092 N   0  0  0  0  0  0  0  0  0  0  0  0
  -21.7261   -4.8208  -29.4030 N   0  0  0  0  0  0  0  0  0  0  0  0
  -19.5117   -8.4882  -34.0987 O   0  5  0  0  0  0  0  0  0  0  0  0
  -21.8037   -3.1882  -22.8980 O   0  5  0  0  0  0  0  0  0  0  0  0
  -21.4702   -8.0563  -35.1360 O   0  0  0  0  0  0  0  0  0  0  0  0
  -21.6900   -3.0742  -25.1502 O   0  0  0  0  0  0  0  0  0  0  0  0
  -20.9952   -3.5201  -31.7124 O   0  0  0  0  0  0  0  0  0  0  0  0
  -24.2503   -5.6447  -28.1296 O   0  0  0  0  0  0  0  0  0  0  0  0
  -19.6654   -5.9182  -29.2386 O   0  0  0  0  0  0  0  0  0  0  0  0
  -16.9764   -5.4802  -26.0090 F   0  0  0  0  0  0  0  0  0  0  0  0
  -17.8678   -3.5047  -25.9274 F   0  0  0  0  0  0  0  0  0  0  0  0
  -18.8332   -5.1725  -24.9198 F   0  0  0  0  0  0  0  0  0  0  0  0
  -18.2511   -4.4102  -37.2337 H   0  0  0  0  0  0  0  0  0  0  0  0
  -25.9875   -5.4278  -22.1479 H   0  0  0  0  0  0  0  0  0  0  0  0
  -18.7470   -2.6444  -35.5626 H   0  0  0  0  0  0  0  0  0  0  0  0
  -27.0127   -5.9187  -24.3534 H   0  0  0  0  0  0  0  0  0  0  0  0
  -18.9772   -6.7372  -36.8332 H   0  0  0  0  0  0  0  0  0  0  0  0
  -23.8071   -4.2735  -22.0219 H   0  0  0  0  0  0  0  0  0  0  0  0
  -19.9704   -3.2042  -33.4909 H   0  0  0  0  0  0  0  0  0  0  0  0
  -25.8588   -5.2544  -26.4341 H   0  0  0  0  0  0  0  0  0  0  0  0
  -17.8072   -6.5980  -28.5898 H   0  0  0  0  0  0  0  0  0  0  0  0
  -21.6224   -6.5002  -30.6265 H   0  0  0  0  0  0  0  0  0  0  0  0
  -23.0340   -5.4505  -30.8988 H   0  0  0  0  0  0  0  0  0  0  0  0
  -22.2654   -3.0532  -28.4022 H   0  0  0  0  0  0  0  0  0  0  0  0
  -23.3930   -3.5648  -29.6812 H   0  0  0  0  0  0  0  0  0  0  0  0
  -21.1421   -6.5760  -32.6841 H   0  0  0  0  0  0  0  0  0  0  0  0
  -22.9361   -3.1796  -26.5485 H   0  0  0  0  0  0  0  0  0  0  0  0
  1  3  2  0  0  0  0
  1  5  1  0  0  0  0
  2  4  2  0  0  0  0
  2  6  1  0  0  0  0
  3  7  1  0  0  0  0
  4  8  1  0  0  0  0
  5 10  2  0  0  0  0
  6 11  2  0  0  0  0
  7 12  2  0  0  0  0
  8 13  2  0  0  0  0
  9 14  2  0  0  0  0
  9 33  1  0  0  0  0
 10 12  1  0  0  0  0
 10 16  1  0  0  0  0
 11 13  1  0  0  0  0
 11 17  1  0  0  0  0
 12 24  1  0  0  0  0
 13 25  1  0  0  0  0
 14 22  1  0  0  0  0
 14 23  1  0  0  0  0
 15 23  2  0  0  0  0
 15 26  1  0  0  0  0
 15 33  1  0  0  0  0
 16 27  1  0  0  0  0
 16 29  2  0  0  0  0
 17 28  1  0  0  0  0
 17 30  2  0  0  0  0
 18 20  1  0  0  0  0
 18 24  1  0  0  0  0
 18 31  2  0  0  0  0
 19 21  1  0  0  0  0
 19 25  1  0  0  0  0
 19 32  2  0  0  0  0
 20 26  1  0  0  0  0
 21 26  1  0  0  0  0
 22 34  1  0  0  0  0
 22 35  1  0  0  0  0
 22 36  1  0  0  0  0
  1 37  1  0  0  0  0
  2 38  1  0  0  0  0
  3 39  1  0  0  0  0
  4 40  1  0  0  0  0
  5 41  1  0  0  0  0
  6 42  1  0  0  0  0
  7 43  1  0  0  0  0
  8 44  1  0  0  0  0
  9 45  1  0  0  0  0
 20 46  1  0  0  0  0
 20 47  1  0  0  0  0
 21 48  1  0  0  0  0
 21 49  1  0  0  0  0
 24 50  1  0  0  0  0
 25 51  1  0  0  0  0
M  CHG  2  27  -1  28  -1
M  END
> <SMILES>
OC(=O)c1ccccc1NC(=O)CN(CC(=O)Nc1ccccc1C(=O)O)c1nc(co1)C(F)(F)F

> <FORMATTED_ID>
H3D-003398

> <MOLFORMULA>
C22H17F3N4O7

> <Exact Mass>
506.1

> <XLogP>
2.16

> <TPSA_NOPS>
162.4

> <s_m_source_file>
ligprep_h3d.sdf

> <i_m_source_file_index>
2059

> <i_lp_mmshare_version>
55123

> <i_f3d_flags>
0

> <s_epik_input>
W09IXUMoPU8pYzFbY0hdW2NIXVtjSF1bY0hdYzFbTkhdQyg9TylbQ0gyXU4oYzJuYyhbY0hdbzIpQyhGKShGKUYpW0NIMl1DKD1PKVtOSF1jM1tjSF1bY0hdW2NIXVtjSF1jM0MoPU8pW09IXQ==

> <s_epik_cmdline>
J2VwaWtfcHl0aG9uJywgJy1waHQnLCAnMC41JywgJy1waCcsICc3LjUnLCAnLXRuJywgJzgnLCAnLW1hJywgJzUwMCcsICctaW1hZScsICc8aW5maWxlLm1hZT4nLCAnLW9tYWUnLCAnPG91dGZpbGUubWFlPic=

> <r_lp_tautomer_probability>
1

> <r_epik_Ionization_Penalty>
0.000159157

> <r_epik_Ionization_Penalty_Charging>
0.000157492

> <r_epik_Ionization_Penalty_Neutral>
1.66548e-06

> <r_epik_State_Penalty>
-0

> <r_epik_Charging_Adjusted_Penalty>
0.000157492

> <i_epik_Tot_Q>
-2

> <i_epik_Tot_abs_Q>
2

> <s_lp_Force_Field>
S-OPLS

> <r_lp_Energy>
79.4795

> <b_lp_Chiralities_Consistent>
1

> <s_lp_Variant>
ligprep_h3d.sdf:2059-1

> <ROCS_ShapeQuery>
_7L13

> <ROCS_TanimotoCombo>
0.699 

> <ROCS_ShapeTanimoto>
0.616 

> <ROCS_ColorTanimoto>
0.083 

> <ROCS_RefTversky>
0.762 

> <ROCS_RefColorTversky>
0.191 

> <ROCS_RefTverskyCombo>
0.953 

> <ROCS_FitTversky>
0.763 

> <ROCS_FitColorTversky>
0.128 

> <ROCS_FitTverskyCombo>
0.891 

> <ROCS_ColorScore>
-1.770

> <ROCS_Overlap>
1265.386

> <ROCS_Rank>
701                 

$$$$
ligprep_h3d.sdf:1113_31
  -OEChem-08212117123D

 61 66  0     1  0  0  0  0  0999 V2000
  -20.9745   -5.1413  -29.5067 C   0  0  0  0  0  0  0  0  0  0  0  0
  -21.7478   -4.3822  -30.3872 C   0  0  0  0  0  0  0  0  0  0  0  0
  -21.0879   -4.8981  -28.1161 C   0  0  0  0  0  0  0  0  0  0  0  0
  -21.9850   -3.9435  -27.5820 C   0  0  0  0  0  0  0  0  0  0  0  0
  -22.5938   -3.4301  -29.8628 C   0  0  0  0  0  0  0  0  0  0  0  0
  -22.7417   -3.1761  -28.4990 C   0  0  0  0  0  0  0  0  0  0  0  0
  -21.9434   -4.2760  -31.7768 C   0  0  0  0  0  0  0  0  0  0  0  0
  -18.9204   -3.8385  -26.2011 C   0  0  0  0  0  0  0  0  0  0  0  0
  -19.2689   -6.1023  -25.0179 C   0  0  0  0  0  0  0  0  0  0  0  0
  -17.0070   -5.3480  -25.7200 C   0  0  0  0  0  0  0  0  0  0  0  0
  -20.2241   -5.7207  -27.1977 C   0  0  0  0  0  0  0  0  0  0  0  0
  -20.3846   -6.9798  -33.7366 C   0  0  0  0  0  0  0  0  0  0  0  0
  -20.8096   -6.4290  -32.3783 C   0  0  0  0  0  0  0  0  0  0  0  0
  -23.0468   -2.7929  -25.6502 C   0  0  0  0  0  0  0  0  0  0  0  0
  -20.9121   -4.6610  -34.0316 C   0  0  0  0  0  0  0  0  0  0  0  0
  -21.2169   -4.4783  -25.2350 C   0  0  2  0  0  0  0  0  0  0  0  0
  -23.4197   -3.1019  -24.1976 C   0  0  1  0  0  0  0  0  0  0  0  0
  -21.0485   -3.5429  -24.0024 C   0  0  2  0  0  0  0  0  0  0  0  0
  -19.8895   -4.9869  -25.8750 C   0  0  0  0  0  0  0  0  0  0  0  0
  -19.9364   -5.7436  -34.5161 C   0  0  1  0  0  0  0  0  0  0  0  0
  -24.4122   -4.2569  -24.0780 C   0  0  0  0  0  0  0  0  0  0  0  0
  -20.0969   -4.0287  -22.9155 C   0  0  0  0  0  0  0  0  0  0  0  0
  -18.4781   -5.3815  -34.2383 C   0  0  0  0  0  0  0  0  0  0  0  0
  -22.8369   -3.3335  -32.0922 N   0  0  0  0  0  0  0  0  0  0  0  0
  -17.5790   -4.1868  -26.2194 N   0  0  0  0  0  0  0  0  0  0  0  0
  -17.8923   -6.2307  -25.1178 N   0  0  0  0  0  0  0  0  0  0  0  0
  -22.0955   -3.7669  -26.2006 N   0  0  3  0  0  0  0  0  0  0  0  0
  -21.2637   -5.0732  -32.6738 N   0  0  0  0  0  0  0  0  0  0  0  0
  -19.2936   -2.7018  -26.4907 O   0  0  0  0  0  0  0  0  0  0  0  0
  -19.9450   -6.8902  -24.3550 O   0  0  0  0  0  0  0  0  0  0  0  0
  -15.7945   -5.5614  -25.7709 O   0  0  0  0  0  0  0  0  0  0  0  0
  -23.2458   -2.7975  -30.8766 O   0  0  0  0  0  0  0  0  0  0  0  0
  -22.3099   -3.3674  -23.3453 O   0  0  0  0  0  0  0  0  0  0  0  0
  -20.0983   -5.9788  -35.9076 O   0  0  0  0  0  0  0  0  0  0  0  0
  -23.5176   -2.1479  -28.1360 F   0  0  0  0  0  0  0  0  0  0  0  0
  -20.2914   -5.8984  -29.8816 H   0  0  0  0  0  0  0  0  0  0  0  0
  -20.7579   -6.6600  -26.9980 H   0  0  0  0  0  0  0  0  0  0  0  0
  -19.2940   -5.9921  -27.7159 H   0  0  0  0  0  0  0  0  0  0  0  0
  -19.5506   -7.6844  -33.6039 H   0  0  0  0  0  0  0  0  0  0  0  0
  -21.2144   -7.5098  -34.2226 H   0  0  0  0  0  0  0  0  0  0  0  0
  -21.6383   -7.0135  -31.9600 H   0  0  0  0  0  0  0  0  0  0  0  0
  -19.9762   -6.4405  -31.6664 H   0  0  0  0  0  0  0  0  0  0  0  0
  -23.9582   -2.8303  -26.2822 H   0  0  0  0  0  0  0  0  0  0  0  0
  -22.7287   -1.7398  -25.6924 H   0  0  0  0  0  0  0  0  0  0  0  0
  -20.4321   -3.6733  -33.9913 H   0  0  0  0  0  0  0  0  0  0  0  0
  -21.8058   -4.5988  -34.6677 H   0  0  0  0  0  0  0  0  0  0  0  0
  -21.8006   -5.3523  -24.9069 H   0  0  0  0  0  0  0  0  0  0  0  0
  -23.9611   -2.1903  -23.7649 H   0  0  0  0  0  0  0  0  0  0  0  0
  -20.6969   -2.5426  -24.3149 H   0  0  0  0  0  0  0  0  0  0  0  0
  -23.9693   -5.1718  -24.4722 H   0  0  0  0  0  0  0  0  0  0  0  0
  -25.3173   -4.0310  -24.6419 H   0  0  0  0  0  0  0  0  0  0  0  0
  -24.6771   -4.4145  -23.0323 H   0  0  0  0  0  0  0  0  0  0  0  0
  -20.3997   -5.0170  -22.5696 H   0  0  0  0  0  0  0  0  0  0  0  0
  -20.1115   -3.3388  -22.0719 H   0  0  0  0  0  0  0  0  0  0  0  0
  -19.0816   -4.0868  -23.3079 H   0  0  0  0  0  0  0  0  0  0  0  0
  -18.1953   -4.4968  -34.8106 H   0  0  0  0  0  0  0  0  0  0  0  0
  -17.8252   -6.2078  -34.5230 H   0  0  0  0  0  0  0  0  0  0  0  0
  -18.3387   -5.1729  -33.1765 H   0  0  0  0  0  0  0  0  0  0  0  0
  -16.9447   -3.5182  -26.6455 H   0  0  0  0  0  0  0  0  0  0  0  0
  -17.4794   -7.0344  -24.6534 H   0  0  0  0  0  0  0  0  0  0  0  0
  -19.5444   -6.7444  -36.1218 H   0  0  0  0  0  0  0  0  0  0  0  0
  1  2  2  0  0  0  0
  1  3  1  0  0  0  0
  2  5  1  0  0  0  0
  2  7  1  0  0  0  0
  3  4  2  0  0  0  0
  3 11  1  0  0  0  0
  4  6  1  0  0  0  0
  4 27  1  0  0  0  0
  5  6  2  0  0  0  0
  5 32  1  0  0  0  0
  6 35  1  0  0  0  0
  7 24  2  0  0  0  0
  7 28  1  0  0  0  0
  8 19  1  0  0  0  0
  8 25  1  0  0  0  0
  8 29  2  0  0  0  0
  9 19  1  0  0  0  0
  9 26  1  0  0  0  0
  9 30  2  0  0  0  0
 10 25  1  0  0  0  0
 10 26  1  0  0  0  0
 10 31  2  0  0  0  0
 11 19  1  0  0  0  0
 12 13  1  0  0  0  0
 12 20  1  0  0  0  0
 13 28  1  0  0  0  0
 14 17  1  0  0  0  0
 14 27  1  0  0  0  0
 15 20  1  0  0  0  0
 15 28  1  0  0  0  0
 16 18  1  0  0  0  0
 16 19  1  0  0  0  0
 16 27  1  0  0  0  0
 17 21  1  0  0  0  0
 17 33  1  0  0  0  0
 18 22  1  0  0  0  0
 18 33  1  0  0  0  0
 20 23  1  0  0  0  0
 20 34  1  0  0  0  0
 24 32  1  0  0  0  0
  1 36  1  0  0  0  0
 11 37  1  0  0  0  0
 11 38  1  0  0  0  0
 12 39  1  0  0  0  0
 12 40  1  0  0  0  0
 13 41  1  0  0  0  0
 13 42  1  0  0  0  0
 14 43  1  0  0  0  0
 14 44  1  0  0  0  0
 15 45  1  0  0  0  0
 15 46  1  0  0  0  0
 16 47  1  0  0  0  0
 17 48  1  0  0  0  0
 18 49  1  0  0  0  0
 21 50  1  0  0  0  0
 21 51  1  0  0  0  0
 21 52  1  0  0  0  0
 22 53  1  0  0  0  0
 22 54  1  0  0  0  0
 22 55  1  0  0  0  0
 23 56  1  0  0  0  0
 23 57  1  0  0  0  0
 23 58  1  0  0  0  0
 25 59  1  0  0  0  0
 26 60  1  0  0  0  0
 34 61  1  0  0  0  0
M  END
> <SMILES>
CC1CN2C(C(C)O1)C1(Cc3cc4c(noc4c(c32)F)N2CCC(C)(O)C2)C(=O)NC(=O)NC1=O

> <FORMATTED_ID>
H3D-006974

> <MOLFORMULA>
C23H26FN5O6

> <Exact Mass>
487.19

> <XLogP>
0.24

> <TPSA_NOPS>
137.5

> <s_m_source_file>
ligprep_h3d.sdf

> <i_m_source_file_index>
1113

> <i_lp_mmshare_version>
55123

> <i_f3d_flags>
0

> <s_epik_input>
Tz1DMVtOSF1DKD1PKVtOSF1DKD1PKUMxMltDQEBIXTNOKFtDSDJdW0NAQEhdKFtDSDNdKU9bQ0BIXTNbQ0gzXSljNGMoW0NIMl0yKVtjSF1jNWMoYzRGKW9uYzVOKFtDSDJdNilbQ0gyXVtDSDJdW0NAQF02KFtDSDNdKVtPSF0=

> <s_epik_cmdline>
J2VwaWtfcHl0aG9uJywgJy1waHQnLCAnMC41JywgJy1waCcsICc3LjUnLCAnLXRuJywgJzgnLCAnLW1hJywgJzUwMCcsICctaW1hZScsICc8aW5maWxlLm1hZT4nLCAnLW9tYWUnLCAnPG91dGZpbGUubWFlPic=

> <r_lp_tautomer_probability>
1

> <r_epik_Ionization_Penalty>
0.369154

> <r_epik_Ionization_Penalty_Charging>
0

> <r_epik_Ionization_Penalty_Neutral>
0.369154

> <r_epik_State_Penalty>
0.366447

> <r_epik_Charging_Adjusted_Penalty>
0.366447

> <i_epik_Tot_Q>
0

> <i_epik_Tot_abs_Q>
0

> <s_lp_Force_Field>
S-OPLS

> <r_lp_Energy>
41.1356

> <b_lp_Chiralities_Consistent>
1

> <s_lp_Variant>
ligprep_h3d.sdf:1113-1

> <ROCS_ShapeQuery>
_7L13

> <ROCS_TanimotoCombo>
0.747 

> <ROCS_ShapeTanimoto>
0.617 

> <ROCS_ColorTanimoto>
0.130 

> <ROCS_RefTversky>
0.762 

> <ROCS_RefColorTversky>
0.298 

> <ROCS_RefTverskyCombo>
1.060 

> <ROCS_FitTversky>
0.764 

> <ROCS_FitColorTversky>
0.188 

> <ROCS_FitTverskyCombo>
0.952 

> <ROCS_ColorScore>
-2.771

> <ROCS_Overlap>
1265.278

> <ROCS_Rank>
702                 

$$$$
ligprep_h3d.sdf:5093_1178
  -OEChem-08212117123D

 62 66  0     0  0  0  0  0  0999 V2000
  -19.3129   -6.1268  -34.7190 C   0  0  0  0  0  0  0  0  0  0  0  0
  -20.3133   -7.0146  -34.3233 C   0  0  0  0  0  0  0  0  0  0  0  0
  -19.2048   -4.8790  -34.1049 C   0  0  0  0  0  0  0  0  0  0  0  0
  -21.2057   -6.6546  -33.3136 C   0  0  0  0  0  0  0  0  0  0  0  0
  -20.0972   -4.5191  -33.0951 C   0  0  0  0  0  0  0  0  0  0  0  0
  -23.5351   -3.9466  -27.7241 C   0  0  0  0  0  0  0  0  0  0  0  0
  -20.8564   -4.4969  -28.4231 C   0  0  0  0  0  0  0  0  0  0  0  0
  -22.5998   -4.2662  -26.7474 C   0  0  0  0  0  0  0  0  0  0  0  0
  -21.0977   -5.4069  -32.6994 C   0  0  0  0  0  0  0  0  0  0  0  0
  -21.2768   -4.5372  -27.1016 C   0  0  0  0  0  0  0  0  0  0  0  0
  -23.1261   -3.9024  -29.0584 C   0  0  0  0  0  0  0  0  0  0  0  0
  -21.7957   -4.1758  -29.4050 C   0  0  0  0  0  0  0  0  0  0  0  0
  -18.8410   -6.5439  -26.0361 C   0  0  0  0  0  0  0  0  0  0  0  0
  -18.2367   -4.2216  -25.7907 C   0  0  0  0  0  0  0  0  0  0  0  0
  -17.5552   -6.9121  -26.0065 C   0  0  0  0  0  0  0  0  0  0  0  0
  -19.2104   -5.1419  -25.9244 C   0  0  0  0  0  0  0  0  0  0  0  0
  -16.7988   -4.6235  -25.7567 C   0  0  0  0  0  0  0  0  0  0  0  0
  -23.8304   -5.4781  -24.9089 C   0  0  0  0  0  0  0  0  0  0  0  0
  -23.2657   -3.0289  -24.6521 C   0  0  0  0  0  0  0  0  0  0  0  0
  -21.3786   -4.7548  -24.7717 C   0  0  0  0  0  0  0  0  0  0  0  0
  -24.1361   -5.5547  -23.4173 C   0  0  0  0  0  0  0  0  0  0  0  0
  -23.5751   -3.1231  -23.1624 C   0  0  0  0  0  0  0  0  0  0  0  0
  -22.8116   -4.3740  -25.2505 C   0  0  0  0  0  0  0  0  0  0  0  0
  -25.0364   -4.2551  -21.4908 C   0  0  0  0  0  0  0  0  0  0  0  0
  -24.1823   -2.2088  -30.3515 C   0  0  0  0  0  0  0  0  0  0  0  0
  -22.0575   -5.0189  -31.6133 C   0  0  0  0  0  0  0  0  0  0  0  0
  -16.5586   -5.9813  -25.8709 N   0  0  0  0  0  0  0  0  0  0  0  0
  -20.5230   -4.8320  -25.9608 N   0  0  0  0  0  0  0  0  0  0  0  0
  -24.6012   -4.2046  -22.9298 N   0  3  0  0  0  0  0  0  0  0  0  0
  -15.9195   -3.7748  -25.6340 O   0  0  0  0  0  0  0  0  0  0  0  0
  -24.0368   -3.5886  -30.0233 O   0  0  0  0  0  0  0  0  0  0  0  0
  -21.4041   -4.1299  -30.7106 O   0  0  0  0  0  0  0  0  0  0  0  0
  -18.6172   -6.4078  -35.5044 H   0  0  0  0  0  0  0  0  0  0  0  0
  -20.3969   -7.9866  -34.8007 H   0  0  0  0  0  0  0  0  0  0  0  0
  -18.4254   -4.1880  -34.4119 H   0  0  0  0  0  0  0  0  0  0  0  0
  -21.9822   -7.3527  -33.0119 H   0  0  0  0  0  0  0  0  0  0  0  0
  -20.0055   -3.5448  -32.6224 H   0  0  0  0  0  0  0  0  0  0  0  0
  -24.5660   -3.7344  -27.4580 H   0  0  0  0  0  0  0  0  0  0  0  0
  -19.8301   -4.7055  -28.7048 H   0  0  0  0  0  0  0  0  0  0  0  0
  -19.6213   -7.2900  -26.1446 H   0  0  0  0  0  0  0  0  0  0  0  0
  -18.4563   -3.1627  -25.7025 H   0  0  0  0  0  0  0  0  0  0  0  0
  -17.2381   -7.9441  -26.0869 H   0  0  0  0  0  0  0  0  0  0  0  0
  -23.4689   -6.4557  -25.2537 H   0  0  0  0  0  0  0  0  0  0  0  0
  -24.7717   -5.3016  -25.4469 H   0  0  0  0  0  0  0  0  0  0  0  0
  -24.1650   -2.6701  -25.1709 H   0  0  0  0  0  0  0  0  0  0  0  0
  -22.5010   -2.2579  -24.8137 H   0  0  0  0  0  0  0  0  0  0  0  0
  -20.9694   -4.0091  -24.0792 H   0  0  0  0  0  0  0  0  0  0  0  0
  -21.3661   -5.7212  -24.2532 H   0  0  0  0  0  0  0  0  0  0  0  0
  -24.9466   -6.2670  -23.2306 H   0  0  0  0  0  0  0  0  0  0  0  0
  -23.2609   -5.8400  -22.8245 H   0  0  0  0  0  0  0  0  0  0  0  0
  -22.6905   -3.3686  -22.5656 H   0  0  0  0  0  0  0  0  0  0  0  0
  -24.0042   -2.1822  -22.8022 H   0  0  0  0  0  0  0  0  0  0  0  0
  -24.1657   -4.5193  -20.8878 H   0  0  0  0  0  0  0  0  0  0  0  0
  -25.4155   -3.2675  -21.2215 H   0  0  0  0  0  0  0  0  0  0  0  0
  -25.8178   -5.0125  -21.4045 H   0  0  0  0  0  0  0  0  0  0  0  0
  -24.9381   -2.0971  -31.1328 H   0  0  0  0  0  0  0  0  0  0  0  0
  -23.2242   -1.8126  -30.6972 H   0  0  0  0  0  0  0  0  0  0  0  0
  -24.4997   -1.6629  -29.4600 H   0  0  0  0  0  0  0  0  0  0  0  0
  -22.9397   -4.5206  -32.0296 H   0  0  0  0  0  0  0  0  0  0  0  0
  -22.3986   -5.9027  -31.0634 H   0  0  0  0  0  0  0  0  0  0  0  0
  -15.5957   -6.3042  -25.8533 H   0  0  0  0  0  0  0  0  0  0  0  0
  -25.4370   -3.9545  -23.4762 H   0  0  0  0  0  0  0  0  0  0  0  0
  1  2  2  0  0  0  0
  1  3  1  0  0  0  0
  2  4  1  0  0  0  0
  3  5  2  0  0  0  0
  4  9  2  0  0  0  0
  5  9  1  0  0  0  0
  6  8  1  0  0  0  0
  6 11  2  0  0  0  0
  7 10  1  0  0  0  0
  7 12  2  0  0  0  0
  8 10  2  0  0  0  0
  8 23  1  0  0  0  0
  9 26  1  0  0  0  0
 10 28  1  0  0  0  0
 11 12  1  0  0  0  0
 11 31  1  0  0  0  0
 12 32  1  0  0  0  0
 13 15  2  0  0  0  0
 13 16  1  0  0  0  0
 14 16  2  0  0  0  0
 14 17  1  0  0  0  0
 15 27  1  0  0  0  0
 16 28  1  0  0  0  0
 17 27  1  0  0  0  0
 17 30  2  0  0  0  0
 18 21  1  0  0  0  0
 18 23  1  0  0  0  0
 19 22  1  0  0  0  0
 19 23  1  0  0  0  0
 20 23  1  0  0  0  0
 20 28  1  0  0  0  0
 21 29  1  0  0  0  0
 22 29  1  0  0  0  0
 24 29  1  0  0  0  0
 25 31  1  0  0  0  0
 26 32  1  0  0  0  0
  1 33  1  0  0  0  0
  2 34  1  0  0  0  0
  3 35  1  0  0  0  0
  4 36  1  0  0  0  0
  5 37  1  0  0  0  0
  6 38  1  0  0  0  0
  7 39  1  0  0  0  0
 13 40  1  0  0  0  0
 14 41  1  0  0  0  0
 15 42  1  0  0  0  0
 18 43  1  0  0  0  0
 18 44  1  0  0  0  0
 19 45  1  0  0  0  0
 19 46  1  0  0  0  0
 20 47  1  0  0  0  0
 20 48  1  0  0  0  0
 21 49  1  0  0  0  0
 21 50  1  0  0  0  0
 22 51  1  0  0  0  0
 22 52  1  0  0  0  0
 24 53  1  0  0  0  0
 24 54  1  0  0  0  0
 24 55  1  0  0  0  0
 25 56  1  0  0  0  0
 25 57  1  0  0  0  0
 25 58  1  0  0  0  0
 26 59  1  0  0  0  0
 26 60  1  0  0  0  0
 27 61  1  0  0  0  0
 29 62  1  0  0  0  0
M  CHG  1  29   1
M  END
> <SMILES>
COc1cc2c(cc1OCc1ccccc1)N(CC12CCN(C)CC1)C1=CC(=O)NC=C1

> <FORMATTED_ID>
H3D-012534

> <MOLFORMULA>
C26H29N3O3

> <Exact Mass>
431.22

> <XLogP>
4.16

> <TPSA_NOPS>
54

> <s_m_source_file>
ligprep_h3d.sdf

> <i_m_source_file_index>
5093

> <i_lp_mmshare_version>
55123

> <i_f3d_flags>
0

> <s_epik_input>
W2NIXTFbY0hdW2NIXVtjSF1bY0hdYzFbQ0gyXU9jKGMoW2NIXTIpT1tDSDNdKVtjSF1jKGMyQzM0W0NIMl1bQ0gyXU4oW0NIM10pW0NIMl1bQ0gyXTQpTihbQ0gyXTMpYzVbY0hdYyg9TylbbkhdW2NIXVtjSF01

> <s_epik_cmdline>
J2VwaWtfcHl0aG9uJywgJy1waHQnLCAnMC41JywgJy1waCcsICc3LjUnLCAnLXRuJywgJzgnLCAnLW1hJywgJzUwMCcsICctaW1hZScsICc8aW5maWxlLm1hZT4nLCAnLW9tYWUnLCAnPG91dGZpbGUubWFlPic=

> <r_lp_tautomer_probability>
1

> <r_epik_Ionization_Penalty>
0.0081344

> <r_epik_Ionization_Penalty_Charging>
0.0081344

> <r_epik_Ionization_Penalty_Neutral>
3.07946e-10

> <r_epik_State_Penalty>
-0

> <r_epik_Charging_Adjusted_Penalty>
0.0081344

> <i_epik_Tot_Q>
1

> <i_epik_Tot_abs_Q>
1

> <s_lp_Force_Field>
S-OPLS

> <r_lp_Energy>
63.7567

> <b_lp_Chiralities_Consistent>
1

> <s_lp_Variant>
ligprep_h3d.sdf:5093-1

> <ROCS_ShapeQuery>
_7L13

> <ROCS_TanimotoCombo>
0.773 

> <ROCS_ShapeTanimoto>
0.672 

> <ROCS_ColorTanimoto>
0.101 

> <ROCS_RefTversky>
0.762 

> <ROCS_RefColorTversky>
0.202 

> <ROCS_RefTverskyCombo>
0.964 

> <ROCS_FitTversky>
0.851 

> <ROCS_FitColorTversky>
0.168 

> <ROCS_FitTverskyCombo>
1.019 

> <ROCS_ColorScore>
-1.835

> <ROCS_Overlap>
1258.064

> <ROCS_Rank>
703                 

$$$$
ligprep_h3d.sdf:1208_930
  -OEChem-08212117123D

101108  0     1  0  0  0  0  0999 V2000
  -13.1910   -5.9991  -29.9962 C   0  0  0  0  0  0  0  0  0  0  0  0
  -13.3751   -4.7100  -29.4963 C   0  0  0  0  0  0  0  0  0  0  0  0
  -14.0069   -7.0412  -29.5557 C   0  0  0  0  0  0  0  0  0  0  0  0
  -26.5224   -6.7055  -23.7627 C   0  0  0  0  0  0  0  0  0  0  0  0
  -14.3752   -4.4630  -28.5558 C   0  0  0  0  0  0  0  0  0  0  0  0
  -15.0070   -6.7941  -28.6152 C   0  0  0  0  0  0  0  0  0  0  0  0
  -17.3926   -6.0168  -27.1413 C   0  0  0  0  0  0  0  0  0  0  0  0
  -16.0644   -4.2325  -26.1982 C   0  0  0  0  0  0  0  0  0  0  0  0
  -26.3971   -5.7303  -24.7502 C   0  0  0  0  0  0  0  0  0  0  0  0
  -18.3926   -5.7695  -26.2008 C   0  0  0  0  0  0  0  0  0  0  0  0
  -17.0645   -3.9851  -25.2578 C   0  0  0  0  0  0  0  0  0  0  0  0
  -19.5924   -7.8716  -34.3750 C   0  0  0  0  0  0  0  0  0  0  0  0
  -26.3764   -6.3846  -22.4101 C   0  0  0  0  0  0  0  0  0  0  0  0
  -20.6061   -7.6105  -33.4487 C   0  0  0  0  0  0  0  0  0  0  0  0
  -25.6942   -2.8380  -22.3678 C   0  0  0  0  0  0  0  0  0  0  0  0
  -19.1654   -5.4986  -34.6637 C   0  0  0  0  0  0  0  0  0  0  0  0
  -20.7242   -4.0095  -33.1950 C   0  0  0  0  0  0  0  0  0  0  0  0
  -25.6639   -3.1167  -21.0208 C   0  0  0  0  0  0  0  0  0  0  0  0
  -25.9699   -4.0529  -23.0554 C   0  0  0  0  0  0  0  0  0  0  0  0
  -20.1832   -5.2108  -33.7327 C   0  0  0  0  0  0  0  0  0  0  0  0
  -15.1911   -5.5050  -28.1152 C   0  0  0  0  0  0  0  0  0  0  0  0
  -16.2284   -5.2483  -27.1399 C   0  0  0  0  0  0  0  0  0  0  0  0
  -26.1212   -4.4003  -24.4126 C   0  0  0  0  0  0  0  0  0  0  0  0
  -18.2286   -4.7537  -25.2591 C   0  0  0  0  0  0  0  0  0  0  0  0
  -18.8819   -6.8335  -34.9744 C   0  0  0  0  0  0  0  0  0  0  0  0
  -26.1008   -5.0511  -22.0875 C   0  0  0  0  0  0  0  0  0  0  0  0
  -20.8786   -6.2713  -33.1479 C   0  0  0  0  0  0  0  0  0  0  0  0
  -21.7193   -4.3574  -32.3108 C   0  0  0  0  0  0  0  0  0  0  0  0
  -25.9933   -3.3871  -25.4720 C   0  0  0  0  0  0  0  0  0  0  0  0
  -22.5715   -3.4748  -31.5055 C   0  0  0  0  0  0  0  0  0  0  0  0
  -21.9573   -3.3229  -26.6128 C   0  0  0  0  0  0  0  0  0  0  0  0
  -21.1159   -2.8872  -23.5468 C   0  0  0  0  0  0  0  0  0  0  0  0
  -20.9208   -4.9125  -28.9406 C   0  0  0  0  0  0  0  0  0  0  0  0
  -22.1824   -5.2821  -28.1441 C   0  0  0  0  0  0  0  0  0  0  0  0
  -20.8641   -3.5468  -29.6295 C   0  0  0  0  0  0  0  0  0  0  0  0
  -24.7943   -2.6188  -27.5035 C   0  0  0  0  0  0  0  0  0  0  0  0
  -23.0370   -2.3689  -29.3502 C   0  0  0  0  0  0  0  0  0  0  0  0
  -24.0074   -4.6542  -26.4718 C   0  0  0  0  0  0  0  0  0  0  0  0
  -23.7858   -3.3098  -28.4180 C   0  0  1  0  0  0  0  0  0  0  0  0
  -22.9248   -4.1394  -27.4396 C   0  0  1  0  0  0  0  0  0  0  0  0
  -17.8052   -7.1465  -35.9598 C   0  0  0  0  0  0  0  0  0  0  0  0
  -25.9595   -5.1272  -19.5817 C   0  0  0  0  0  0  0  0  0  0  0  0
  -21.0093   -1.0382  -21.8771 C   0  0  0  0  0  0  0  0  0  0  0  0
  -19.3105   -4.4862  -24.2415 C   0  0  0  0  0  0  0  0  0  0  0  0
  -20.3416   -3.4614  -24.7279 C   0  0  1  0  0  0  0  0  0  0  0  0
  -21.8048   -5.7237  -32.2890 N   0  0  0  0  0  0  0  0  0  0  0  0
  -25.9100   -4.4541  -20.8617 N   0  0  0  0  0  0  0  0  0  0  0  0
  -25.0032   -3.5758  -26.4239 N   0  0  0  0  0  0  0  0  0  0  0  0
  -22.1291   -3.1143  -30.2270 N   0  0  0  0  0  0  0  0  0  0  0  0
  -21.3085   -4.0453  -25.6297 N   0  0  0  0  0  0  0  0  0  0  0  0
  -20.5082   -1.7514  -23.0299 N   0  0  0  0  0  0  0  0  0  0  0  0
  -26.7681   -2.4332  -25.4378 O   0  0  0  0  0  0  0  0  0  0  0  0
  -23.6300   -3.1216  -32.0235 O   0  0  0  0  0  0  0  0  0  0  0  0
  -21.8136   -2.1300  -26.8540 O   0  0  0  0  0  0  0  0  0  0  0  0
  -22.1319   -3.4108  -23.0946 O   0  0  0  0  0  0  0  0  0  0  0  0
  -12.4133   -6.1909  -30.7297 H   0  0  0  0  0  0  0  0  0  0  0  0
  -12.7410   -3.8982  -29.8404 H   0  0  0  0  0  0  0  0  0  0  0  0
  -13.8650   -8.0449  -29.9456 H   0  0  0  0  0  0  0  0  0  0  0  0
  -26.7376   -7.7324  -24.0475 H   0  0  0  0  0  0  0  0  0  0  0  0
  -14.5064   -3.4525  -28.1758 H   0  0  0  0  0  0  0  0  0  0  0  0
  -15.6357   -7.6163  -28.2817 H   0  0  0  0  0  0  0  0  0  0  0  0
  -17.5350   -6.8127  -27.8685 H   0  0  0  0  0  0  0  0  0  0  0  0
  -15.1630   -3.6244  -26.1847 H   0  0  0  0  0  0  0  0  0  0  0  0
  -26.5179   -6.0159  -25.7930 H   0  0  0  0  0  0  0  0  0  0  0  0
  -19.2957   -6.3739  -26.2086 H   0  0  0  0  0  0  0  0  0  0  0  0
  -16.9286   -3.1913  -24.5280 H   0  0  0  0  0  0  0  0  0  0  0  0
  -19.3628   -8.9051  -34.6248 H   0  0  0  0  0  0  0  0  0  0  0  0
  -26.4748   -7.1483  -21.6460 H   0  0  0  0  0  0  0  0  0  0  0  0
  -21.1588   -8.4193  -32.9826 H   0  0  0  0  0  0  0  0  0  0  0  0
  -25.5352   -1.8630  -22.8078 H   0  0  0  0  0  0  0  0  0  0  0  0
  -18.6089   -4.6919  -35.1335 H   0  0  0  0  0  0  0  0  0  0  0  0
  -20.4152   -3.0002  -33.4328 H   0  0  0  0  0  0  0  0  0  0  0  0
  -25.4882   -2.4761  -20.1673 H   0  0  0  0  0  0  0  0  0  0  0  0
  -20.0230   -5.0383  -28.2921 H   0  0  0  0  0  0  0  0  0  0  0  0
  -20.7871   -5.6933  -29.7230 H   0  0  0  0  0  0  0  0  0  0  0  0
  -22.8733   -5.7945  -28.8335 H   0  0  0  0  0  0  0  0  0  0  0  0
  -21.8937   -6.0446  -27.4024 H   0  0  0  0  0  0  0  0  0  0  0  0
  -20.5634   -2.7968  -28.8725 H   0  0  0  0  0  0  0  0  0  0  0  0
  -20.0665   -3.5081  -30.3970 H   0  0  0  0  0  0  0  0  0  0  0  0
  -24.4073   -1.6977  -27.0586 H   0  0  0  0  0  0  0  0  0  0  0  0
  -25.7363   -2.4003  -28.0116 H   0  0  0  0  0  0  0  0  0  0  0  0
  -23.7376   -1.8504  -29.9876 H   0  0  0  0  0  0  0  0  0  0  0  0
  -22.4823   -1.6431  -28.7816 H   0  0  0  0  0  0  0  0  0  0  0  0
  -24.5225   -5.5382  -26.8513 H   0  0  0  0  0  0  0  0  0  0  0  0
  -23.6456   -4.8600  -25.4644 H   0  0  0  0  0  0  0  0  0  0  0  0
  -24.3605   -4.0301  -29.0414 H   0  0  0  0  0  0  0  0  0  0  0  0
  -18.2196   -7.1951  -36.9737 H   0  0  0  0  0  0  0  0  0  0  0  0
  -17.0162   -6.3842  -35.9414 H   0  0  0  0  0  0  0  0  0  0  0  0
  -17.3257   -8.1070  -35.7322 H   0  0  0  0  0  0  0  0  0  0  0  0
  -26.9905   -5.0891  -19.2202 H   0  0  0  0  0  0  0  0  0  0  0  0
  -25.6350   -6.1645  -19.7030 H   0  0  0  0  0  0  0  0  0  0  0  0
  -25.2887   -4.6217  -18.8814 H   0  0  0  0  0  0  0  0  0  0  0  0
  -21.7184   -0.2635  -22.2043 H   0  0  0  0  0  0  0  0  0  0  0  0
  -21.5205   -1.7423  -21.2041 H   0  0  0  0  0  0  0  0  0  0  0  0
  -20.1703   -0.5660  -21.3450 H   0  0  0  0  0  0  0  0  0  0  0  0
  -19.8075   -5.4286  -23.9744 H   0  0  0  0  0  0  0  0  0  0  0  0
  -18.8331   -4.1400  -23.3152 H   0  0  0  0  0  0  0  0  0  0  0  0
  -19.8603   -2.6416  -25.2741 H   0  0  0  0  0  0  0  0  0  0  0  0
  -22.4530   -6.2567  -31.7254 H   0  0  0  0  0  0  0  0  0  0  0  0
  -21.5212   -5.0339  -25.5363 H   0  0  0  0  0  0  0  0  0  0  0  0
  -19.6690   -1.4040  -23.4847 H   0  0  0  0  0  0  0  0  0  0  0  0
  1  2  2  0  0  0  0
  1  3  1  0  0  0  0
  2  5  1  0  0  0  0
  3  6  2  0  0  0  0
  4  9  1  0  0  0  0
  4 13  2  0  0  0  0
  5 21  2  0  0  0  0
  6 21  1  0  0  0  0
  7 10  1  0  0  0  0
  7 22  2  0  0  0  0
  8 11  2  0  0  0  0
  8 22  1  0  0  0  0
  9 23  2  0  0  0  0
 10 24  2  0  0  0  0
 11 24  1  0  0  0  0
 12 14  1  0  0  0  0
 12 25  2  0  0  0  0
 13 26  1  0  0  0  0
 14 27  2  0  0  0  0
 15 18  2  0  0  0  0
 15 19  1  0  0  0  0
 16 20  2  0  0  0  0
 16 25  1  0  0  0  0
 17 20  1  0  0  0  0
 17 28  2  0  0  0  0
 18 47  1  0  0  0  0
 19 23  1  0  0  0  0
 19 26  2  0  0  0  0
 20 27  1  0  0  0  0
 21 22  1  0  0  0  0
 23 29  1  0  0  0  0
 24 44  1  0  0  0  0
 25 41  1  0  0  0  0
 26 47  1  0  0  0  0
 27 46  1  0  0  0  0
 28 30  1  0  0  0  0
 28 46  1  0  0  0  0
 29 48  1  0  0  0  0
 29 52  2  0  0  0  0
 30 49  1  0  0  0  0
 30 53  2  0  0  0  0
 31 40  1  0  0  0  0
 31 50  1  0  0  0  0
 31 54  2  0  0  0  0
 32 45  1  0  0  0  0
 32 51  1  0  0  0  0
 32 55  2  0  0  0  0
 33 34  1  0  0  0  0
 33 35  1  0  0  0  0
 34 40  1  0  0  0  0
 35 49  1  0  0  0  0
 36 39  1  0  0  0  0
 36 48  1  0  0  0  0
 37 39  1  0  0  0  0
 37 49  1  0  0  0  0
 38 40  1  0  0  0  0
 38 48  1  0  0  0  0
 39 40  1  0  0  0  0
 42 47  1  0  0  0  0
 43 51  1  0  0  0  0
 44 45  1  0  0  0  0
 45 50  1  0  0  0  0
  1 56  1  0  0  0  0
  2 57  1  0  0  0  0
  3 58  1  0  0  0  0
  4 59  1  0  0  0  0
  5 60  1  0  0  0  0
  6 61  1  0  0  0  0
  7 62  1  0  0  0  0
  8 63  1  0  0  0  0
  9 64  1  0  0  0  0
 10 65  1  0  0  0  0
 11 66  1  0  0  0  0
 12 67  1  0  0  0  0
 13 68  1  0  0  0  0
 14 69  1  0  0  0  0
 15 70  1  0  0  0  0
 16 71  1  0  0  0  0
 17 72  1  0  0  0  0
 18 73  1  0  0  0  0
 33 74  1  0  0  0  0
 33 75  1  0  0  0  0
 34 76  1  0  0  0  0
 34 77  1  0  0  0  0
 35 78  1  0  0  0  0
 35 79  1  0  0  0  0
 36 80  1  0  0  0  0
 36 81  1  0  0  0  0
 37 82  1  0  0  0  0
 37 83  1  0  0  0  0
 38 84  1  0  0  0  0
 38 85  1  0  0  0  0
 39 86  1  0  0  0  0
 41 87  1  0  0  0  0
 41 88  1  0  0  0  0
 41 89  1  0  0  0  0
 42 90  1  0  0  0  0
 42 91  1  0  0  0  0
 42 92  1  0  0  0  0
 43 93  1  0  0  0  0
 43 94  1  0  0  0  0
 43 95  1  0  0  0  0
 44 96  1  0  0  0  0
 44 97  1  0  0  0  0
 45 98  1  0  0  0  0
 46 99  1  0  0  0  0
 50100  1  0  0  0  0
 51101  1  0  0  0  0
M  END
> <SMILES>
CNC(=O)[C@@H](Cc1ccc(cc1)-c1ccccc1)NC(=O)[C@@]12CCCN(C[C@@H]2CN(C1)C(=O)c1cccc2n(ccc12)C)C(=O)c1cc2cc(ccc2[nH]1)C

> <FORMATTED_ID>
H3D-008335

> <MOLFORMULA>
C45H46N6O4

> <Exact Mass>
734.36

> <XLogP>
7.87

> <TPSA_NOPS>
119.5

> <s_m_source_file>
ligprep_h3d.sdf

> <i_m_source_file_index>
1208

> <i_lp_mmshare_version>
55123

> <i_f3d_flags>
0

> <s_epik_input>
W2NIXTFbY0hdW2NIXVtjSF1bY0hdYzEtYyhbY0hdW2NIXTIpW2NIXVtjSF1jMltDSDJdW0NASF0oQyg9TylbTkhdW0NIM10pW05IXUMoPU8pW0NAQF0zNFtDQEBIXShbQ0gyXU4oW0NIMl00KUMoPU8pYyhbY0hdW2NIXVtjSF01KWMoYzU2KVtjSF1bY0hdbjZbQ0gzXSlbQ0gyXU4oW0NIMl1bQ0gyXVtDSDJdMylDKD1PKWMoW2NIXTcpW25IXWMoYzc4KVtjSF1bY0hdYyhbY0hdOClbQ0gzXQ==

> <s_epik_cmdline>
J2VwaWtfcHl0aG9uJywgJy1waHQnLCAnMC41JywgJy1waCcsICc3LjUnLCAnLXRuJywgJzgnLCAnLW1hJywgJzUwMCcsICctaW1hZScsICc8aW5maWxlLm1hZT4nLCAnLW9tYWUnLCAnPG91dGZpbGUubWFlPic=

> <r_lp_tautomer_probability>
1

> <r_epik_Ionization_Penalty>
1.57417e-06

> <r_epik_Ionization_Penalty_Charging>
0

> <r_epik_Ionization_Penalty_Neutral>
1.57417e-06

> <r_epik_State_Penalty>
-0

> <r_epik_Charging_Adjusted_Penalty>
0

> <i_epik_Tot_Q>
0

> <i_epik_Tot_abs_Q>
0

> <s_lp_Force_Field>
S-OPLS

> <r_lp_Energy>
69.4306

> <b_lp_Chiralities_Consistent>
1

> <s_lp_Variant>
ligprep_h3d.sdf:1208-1

> <ROCS_ShapeQuery>
_7L13

> <ROCS_TanimotoCombo>
0.490 

> <ROCS_ShapeTanimoto>
0.445 

> <ROCS_ColorTanimoto>
0.045 

> <ROCS_RefTversky>
0.762 

> <ROCS_RefColorTversky>
0.111 

> <ROCS_RefTverskyCombo>
0.873 

> <ROCS_FitTversky>
0.517 

> <ROCS_FitColorTversky>
0.070 

> <ROCS_FitTverskyCombo>
0.587 

> <ROCS_ColorScore>
-1.035

> <ROCS_Overlap>
1299.559

> <ROCS_Rank>
704                 

$$$$
ligprep_h3d.sdf:4711_1446
  -OEChem-08212117123D

 68 72  0     1  0  0  0  0  0999 V2000
  -24.8675   -5.0194  -22.5826 C   0  0  0  0  0  0  0  0  0  0  0  0
  -23.6973   -4.3407  -22.9225 C   0  0  0  0  0  0  0  0  0  0  0  0
  -25.8464   -5.2494  -23.5494 C   0  0  0  0  0  0  0  0  0  0  0  0
  -20.4501   -4.3447  -34.3771 C   0  0  0  0  0  0  0  0  0  0  0  0
  -20.6480   -6.1909  -32.8314 C   0  0  0  0  0  0  0  0  0  0  0  0
  -23.5060   -3.8918  -24.2293 C   0  0  0  0  0  0  0  0  0  0  0  0
  -25.6550   -4.8005  -24.8561 C   0  0  0  0  0  0  0  0  0  0  0  0
  -19.9447   -5.2106  -35.3468 C   0  0  0  0  0  0  0  0  0  0  0  0
  -20.1426   -7.0569  -33.8011 C   0  0  0  0  0  0  0  0  0  0  0  0
  -20.8017   -4.8348  -33.1194 C   0  0  0  0  0  0  0  0  0  0  0  0
  -24.4848   -4.1218  -25.1961 C   0  0  0  0  0  0  0  0  0  0  0  0
  -19.7910   -6.5667  -35.0588 C   0  0  0  0  0  0  0  0  0  0  0  0
  -22.2995   -4.5981  -31.1375 C   0  0  0  0  0  0  0  0  0  0  0  0
  -17.3306   -3.7661  -25.2701 C   0  0  0  0  0  0  0  0  0  0  0  0
  -17.2870   -6.1691  -26.0774 C   0  0  0  0  0  0  0  0  0  0  0  0
  -16.5183   -4.1647  -24.0391 C   0  0  0  0  0  0  0  0  0  0  0  0
  -16.4747   -6.5682  -24.8466 C   0  0  0  0  0  0  0  0  0  0  0  0
  -22.7882   -5.1848  -28.7779 C   0  0  0  0  0  0  0  0  0  0  0  0
  -20.7740   -3.9047  -29.2356 C   0  0  0  0  0  0  0  0  0  0  0  0
  -19.8539   -5.5381  -27.4540 C   0  0  0  0  0  0  0  0  0  0  0  0
  -19.9299   -3.5658  -26.7688 C   0  0  0  0  0  0  0  0  0  0  0  0
  -22.2870   -4.6285  -27.4495 C   0  0  1  0  0  0  0  0  0  0  0  0
  -18.1546   -4.9464  -25.7826 C   0  0  0  0  0  0  0  0  0  0  0  0
  -20.8152   -4.3534  -27.7713 C   0  0  0  0  0  0  0  0  0  0  0  0
  -15.6690   -5.3970  -24.3072 C   0  0  0  0  0  0  0  0  0  0  0  0
  -21.3458   -3.9040  -32.0769 C   0  0  0  0  0  0  0  0  0  0  0  0
  -23.0258   -3.3478  -27.0664 C   0  0  0  0  0  0  0  0  0  0  0  0
  -21.9589   -4.5513  -29.7949 N   0  0  0  0  0  0  0  0  0  0  0  0
  -24.2935   -3.6726  -26.5048 N   0  0  0  0  0  0  0  0  0  0  0  0
  -18.8519   -4.5395  -27.0316 N   0  3  0  0  0  0  0  0  0  0  0  0
  -23.3035   -5.1628  -31.5751 O   0  0  0  0  0  0  0  0  0  0  0  0
  -19.2990   -7.4118  -36.0056 O   0  0  0  0  0  0  0  0  0  0  0  0
  -14.6922   -5.0804  -25.1970 F   0  0  0  0  0  0  0  0  0  0  0  0
  -15.0408   -5.7696  -23.1642 F   0  0  0  0  0  0  0  0  0  0  0  0
  -25.0165   -5.3687  -21.5649 H   0  0  0  0  0  0  0  0  0  0  0  0
  -22.9355   -4.1617  -22.1698 H   0  0  0  0  0  0  0  0  0  0  0  0
  -26.7576   -5.7779  -23.2844 H   0  0  0  0  0  0  0  0  0  0  0  0
  -20.5665   -3.2896  -34.6101 H   0  0  0  0  0  0  0  0  0  0  0  0
  -20.9193   -6.5817  -31.8541 H   0  0  0  0  0  0  0  0  0  0  0  0
  -22.5907   -3.3639  -24.4839 H   0  0  0  0  0  0  0  0  0  0  0  0
  -26.4247   -4.9857  -25.6012 H   0  0  0  0  0  0  0  0  0  0  0  0
  -19.6728   -4.8228  -36.3249 H   0  0  0  0  0  0  0  0  0  0  0  0
  -20.0256   -8.1121  -33.5708 H   0  0  0  0  0  0  0  0  0  0  0  0
  -17.9867   -2.9254  -25.0148 H   0  0  0  0  0  0  0  0  0  0  0  0
  -16.6448   -3.4147  -26.0518 H   0  0  0  0  0  0  0  0  0  0  0  0
  -16.5988   -5.9552  -26.9056 H   0  0  0  0  0  0  0  0  0  0  0  0
  -17.9125   -7.0142  -26.3879 H   0  0  0  0  0  0  0  0  0  0  0  0
  -15.8720   -3.3303  -23.7438 H   0  0  0  0  0  0  0  0  0  0  0  0
  -17.1899   -4.3579  -23.1939 H   0  0  0  0  0  0  0  0  0  0  0  0
  -17.1430   -6.9464  -24.0636 H   0  0  0  0  0  0  0  0  0  0  0  0
  -15.7984   -7.3900  -25.1075 H   0  0  0  0  0  0  0  0  0  0  0  0
  -22.6023   -6.2633  -28.8450 H   0  0  0  0  0  0  0  0  0  0  0  0
  -23.8512   -5.0069  -28.9685 H   0  0  0  0  0  0  0  0  0  0  0  0
  -20.9036   -2.8218  -29.3338 H   0  0  0  0  0  0  0  0  0  0  0  0
  -19.8727   -4.2133  -29.7728 H   0  0  0  0  0  0  0  0  0  0  0  0
  -20.1886   -6.2064  -26.6516 H   0  0  0  0  0  0  0  0  0  0  0  0
  -19.5273   -6.1429  -28.3052 H   0  0  0  0  0  0  0  0  0  0  0  0
  -19.6684   -2.5446  -27.0600 H   0  0  0  0  0  0  0  0  0  0  0  0
  -20.2945   -3.5656  -25.7350 H   0  0  0  0  0  0  0  0  0  0  0  0
  -22.4084   -5.3620  -26.6450 H   0  0  0  0  0  0  0  0  0  0  0  0
  -18.9437   -5.2013  -25.0667 H   0  0  0  0  0  0  0  0  0  0  0  0
  -20.5301   -3.4767  -31.4910 H   0  0  0  0  0  0  0  0  0  0  0  0
  -21.8681   -3.0658  -32.5407 H   0  0  0  0  0  0  0  0  0  0  0  0
  -22.4071   -2.8236  -26.3401 H   0  0  0  0  0  0  0  0  0  0  0  0
  -23.1476   -2.7615  -27.9755 H   0  0  0  0  0  0  0  0  0  0  0  0
  -25.1327   -3.5757  -27.0824 H   0  0  0  0  0  0  0  0  0  0  0  0
  -18.2124   -4.2530  -27.7853 H   0  0  0  0  0  0  0  0  0  0  0  0
  -19.2515   -8.3163  -35.6571 H   0  0  0  0  0  0  0  0  0  0  0  0
  1  2  2  0  0  0  0
  1  3  1  0  0  0  0
  2  6  1  0  0  0  0
  3  7  2  0  0  0  0
  4  8  1  0  0  0  0
  4 10  2  0  0  0  0
  5  9  2  0  0  0  0
  5 10  1  0  0  0  0
  6 11  2  0  0  0  0
  7 11  1  0  0  0  0
  8 12  2  0  0  0  0
  9 12  1  0  0  0  0
 10 26  1  0  0  0  0
 11 29  1  0  0  0  0
 12 32  1  0  0  0  0
 13 26  1  0  0  0  0
 13 28  1  0  0  0  0
 13 31  2  0  0  0  0
 14 16  1  0  0  0  0
 14 23  1  0  0  0  0
 15 17  1  0  0  0  0
 15 23  1  0  0  0  0
 16 25  1  0  0  0  0
 17 25  1  0  0  0  0
 18 22  1  0  0  0  0
 18 28  1  0  0  0  0
 19 24  1  0  0  0  0
 19 28  1  0  0  0  0
 20 24  1  0  0  0  0
 20 30  1  0  0  0  0
 21 24  1  0  0  0  0
 21 30  1  0  0  0  0
 22 24  1  0  0  0  0
 22 27  1  0  0  0  0
 23 30  1  0  0  0  0
 25 33  1  0  0  0  0
 25 34  1  0  0  0  0
 27 29  1  0  0  0  0
  1 35  1  0  0  0  0
  2 36  1  0  0  0  0
  3 37  1  0  0  0  0
  4 38  1  0  0  0  0
  5 39  1  0  0  0  0
  6 40  1  0  0  0  0
  7 41  1  0  0  0  0
  8 42  1  0  0  0  0
  9 43  1  0  0  0  0
 14 44  1  0  0  0  0
 14 45  1  0  0  0  0
 15 46  1  0  0  0  0
 15 47  1  0  0  0  0
 16 48  1  0  0  0  0
 16 49  1  0  0  0  0
 17 50  1  0  0  0  0
 17 51  1  0  0  0  0
 18 52  1  0  0  0  0
 18 53  1  0  0  0  0
 19 54  1  0  0  0  0
 19 55  1  0  0  0  0
 20 56  1  0  0  0  0
 20 57  1  0  0  0  0
 21 58  1  0  0  0  0
 21 59  1  0  0  0  0
 22 60  1  0  0  0  0
 23 61  1  0  0  0  0
 26 62  1  0  0  0  0
 26 63  1  0  0  0  0
 27 64  1  0  0  0  0
 27 65  1  0  0  0  0
 29 66  1  0  0  0  0
 30 67  1  0  0  0  0
 32 68  1  0  0  0  0
M  CHG  1  30   1
M  END
> <SMILES>
Oc1ccc(cc1)CC(=O)N1CC(CNc2ccccc2)C2(CN(C2)C2CCC(F)(F)CC2)C1

> <FORMATTED_ID>
H3D-006660

> <MOLFORMULA>
C27H33F2N3O2

> <Exact Mass>
469.25

> <XLogP>
4.34

> <TPSA_NOPS>
55.8

> <s_m_source_file>
ligprep_h3d.sdf

> <i_m_source_file_index>
4711

> <i_lp_mmshare_version>
55123

> <i_f3d_flags>
0

> <s_epik_input>
W09IXWMxW2NIXVtjSF1jKFtjSF1bY0hdMSlbQ0gyXUMoPU8pTihbQ0gyXTIpW0NIMl1bQ0BASF0oQzIzW0NIMl1OKFtDSDJdMylbQ0hdKFtDSDJdW0NIMl00KVtDSDJdW0NIMl1DNChGKUYpW0NIMl1bTkhdYzVbY0hdW2NIXVtjSF1bY0hdW2NIXTU=

> <s_epik_cmdline>
J2VwaWtfcHl0aG9uJywgJy1waHQnLCAnMC41JywgJy1waCcsICc3LjUnLCAnLXRuJywgJzgnLCAnLW1hJywgJzUwMCcsICctaW1hZScsICc8aW5maWxlLm1hZT4nLCAnLW9tYWUnLCAnPG91dGZpbGUubWFlPic=

> <r_lp_tautomer_probability>
1

> <r_epik_Ionization_Penalty>
0.00862358

> <r_epik_Ionization_Penalty_Charging>
0.00452254

> <r_epik_Ionization_Penalty_Neutral>
0.00410104

> <r_epik_State_Penalty>
-0

> <r_epik_Charging_Adjusted_Penalty>
0.00452254

> <i_epik_Tot_Q>
1

> <i_epik_Tot_abs_Q>
1

> <s_lp_Force_Field>
S-OPLS

> <r_lp_Energy>
55.5403

> <b_lp_Chiralities_Consistent>
1

> <s_lp_Variant>
ligprep_h3d.sdf:4711-1

> <ROCS_ShapeQuery>
_7L13

> <ROCS_TanimotoCombo>
0.709 

> <ROCS_ShapeTanimoto>
0.650 

> <ROCS_ColorTanimoto>
0.059 

> <ROCS_RefTversky>
0.762 

> <ROCS_RefColorTversky>
0.123 

> <ROCS_RefTverskyCombo>
0.885 

> <ROCS_FitTversky>
0.816 

> <ROCS_FitColorTversky>
0.102 

> <ROCS_FitTverskyCombo>
0.919 

> <ROCS_ColorScore>
-1.116

> <ROCS_Overlap>
1260.603

> <ROCS_Rank>
705                 

$$$$
ligprep_h3d.sdf:2755_947
  -OEChem-08212117123D

 63 67  0     0  0  0  0  0  0999 V2000
  -19.7341   -8.6184  -35.9496 C   0  0  0  0  0  0  0  0  0  0  0  0
  -25.3500   -5.2166  -23.5457 C   0  0  0  0  0  0  0  0  0  0  0  0
  -24.2530   -4.5839  -22.9563 C   0  0  0  0  0  0  0  0  0  0  0  0
  -19.9776   -7.7841  -33.6641 C   0  0  0  0  0  0  0  0  0  0  0  0
  -20.0670   -6.7229  -32.7633 C   0  0  0  0  0  0  0  0  0  0  0  0
  -19.6213   -3.3520  -24.6201 C   0  0  0  0  0  0  0  0  0  0  0  0
  -20.0615   -4.4748  -26.7135 C   0  0  0  0  0  0  0  0  0  0  0  0
  -18.5266   -4.1883  -24.4016 C   0  0  0  0  0  0  0  0  0  0  0  0
  -18.9667   -5.3111  -26.4951 C   0  0  0  0  0  0  0  0  0  0  0  0
  -25.5347   -5.1958  -24.9339 C   0  0  0  0  0  0  0  0  0  0  0  0
  -23.3026   -3.9091  -23.7296 C   0  0  0  0  0  0  0  0  0  0  0  0
  -19.7627   -6.2165  -35.4898 C   0  0  0  0  0  0  0  0  0  0  0  0
  -19.8255   -7.5309  -35.0273 C   0  0  0  0  0  0  0  0  0  0  0  0
  -20.3888   -3.4953  -25.7760 C   0  0  0  0  0  0  0  0  0  0  0  0
  -18.1993   -5.1678  -25.3392 C   0  0  0  0  0  0  0  0  0  0  0  0
  -20.0042   -5.4084  -33.2258 C   0  0  0  0  0  0  0  0  0  0  0  0
  -24.5897   -4.5223  -25.7260 C   0  0  0  0  0  0  0  0  0  0  0  0
  -23.5069   -3.9014  -25.1097 C   0  0  0  0  0  0  0  0  0  0  0  0
  -19.8521   -5.1552  -34.5891 C   0  0  0  0  0  0  0  0  0  0  0  0
  -23.4506   -3.6490  -27.3070 C   0  0  0  0  0  0  0  0  0  0  0  0
  -23.2566   -4.8976  -30.2622 C   0  0  0  0  0  0  0  0  0  0  0  0
  -23.1029   -2.4626  -30.8452 C   0  0  0  0  0  0  0  0  0  0  0  0
  -21.8056   -5.0573  -30.7270 C   0  0  0  0  0  0  0  0  0  0  0  0
  -21.6571   -2.7038  -31.2908 C   0  0  0  0  0  0  0  0  0  0  0  0
  -23.5570   -3.4733  -29.7894 C   0  0  0  0  0  0  0  0  0  0  0  0
  -21.5698   -2.5932  -26.0127 C   0  0  0  0  0  0  0  0  0  0  0  0
  -20.1022   -4.2788  -32.2417 C   0  0  0  0  0  0  0  0  0  0  0  0
  -17.0276   -6.0606  -25.1057 C   0  0  0  0  0  0  0  0  0  0  0  0
  -19.6599   -9.5017  -36.6987 N   0  0  0  0  0  0  0  0  0  0  0  0
  -24.5377   -4.3550  -27.0909 N   0  0  0  0  0  0  0  0  0  0  0  0
  -22.7952   -3.3511  -26.1447 N   0  0  0  0  0  0  0  0  0  0  0  0
  -21.4730   -4.0796  -31.7717 N   0  0  0  0  0  0  0  0  0  0  0  0
  -22.9365   -3.2065  -28.5111 N   0  0  0  0  0  0  0  0  0  0  0  0
  -19.7886   -3.8772  -35.0570 O   0  0  0  0  0  0  0  0  0  0  0  0
  -16.3696   -5.8058  -23.9361 F   0  0  0  0  0  0  0  0  0  0  0  0
  -17.3528   -7.3861  -25.0497 F   0  0  0  0  0  0  0  0  0  0  0  0
  -16.0842   -5.9562  -26.0866 F   0  0  0  0  0  0  0  0  0  0  0  0
  -26.0717   -5.7331  -22.9180 H   0  0  0  0  0  0  0  0  0  0  0  0
  -24.1345   -4.6165  -21.8761 H   0  0  0  0  0  0  0  0  0  0  0  0
  -20.0286   -8.8035  -33.2889 H   0  0  0  0  0  0  0  0  0  0  0  0
  -20.1858   -6.9300  -31.7029 H   0  0  0  0  0  0  0  0  0  0  0  0
  -19.8692   -2.5917  -23.8840 H   0  0  0  0  0  0  0  0  0  0  0  0
  -20.6532   -4.5923  -27.6176 H   0  0  0  0  0  0  0  0  0  0  0  0
  -17.9335   -4.0681  -23.4990 H   0  0  0  0  0  0  0  0  0  0  0  0
  -18.7184   -6.0718  -27.2306 H   0  0  0  0  0  0  0  0  0  0  0  0
  -26.3903   -5.6903  -25.3824 H   0  0  0  0  0  0  0  0  0  0  0  0
  -22.4514   -3.4187  -23.2710 H   0  0  0  0  0  0  0  0  0  0  0  0
  -19.6439   -6.0099  -36.5516 H   0  0  0  0  0  0  0  0  0  0  0  0
  -23.9273   -5.1428  -31.0966 H   0  0  0  0  0  0  0  0  0  0  0  0
  -23.4766   -5.6218  -29.4685 H   0  0  0  0  0  0  0  0  0  0  0  0
  -23.2120   -1.4377  -30.4701 H   0  0  0  0  0  0  0  0  0  0  0  0
  -23.7632   -2.5424  -31.7191 H   0  0  0  0  0  0  0  0  0  0  0  0
  -21.1253   -4.9643  -29.8704 H   0  0  0  0  0  0  0  0  0  0  0  0
  -21.6878   -6.0737  -31.1225 H   0  0  0  0  0  0  0  0  0  0  0  0
  -21.4307   -1.9976  -32.0992 H   0  0  0  0  0  0  0  0  0  0  0  0
  -20.9683   -2.4802  -30.4658 H   0  0  0  0  0  0  0  0  0  0  0  0
  -24.6537   -3.3712  -29.6526 H   0  0  0  0  0  0  0  0  0  0  0  0
  -21.6946   -1.8799  -25.1889 H   0  0  0  0  0  0  0  0  0  0  0  0
  -21.4363   -1.9963  -26.9231 H   0  0  0  0  0  0  0  0  0  0  0  0
  -19.4708   -4.4723  -31.3677 H   0  0  0  0  0  0  0  0  0  0  0  0
  -19.7613   -3.3385  -32.6875 H   0  0  0  0  0  0  0  0  0  0  0  0
  -22.0810   -2.6682  -28.5063 H   0  0  0  0  0  0  0  0  0  0  0  0
  -19.6823   -3.8784  -36.0212 H   0  0  0  0  0  0  0  0  0  0  0  0
  1 13  1  0  0  0  0
  1 29  3  0  0  0  0
  2  3  2  0  0  0  0
  2 10  1  0  0  0  0
  3 11  1  0  0  0  0
  4  5  1  0  0  0  0
  4 13  2  0  0  0  0
  5 16  2  0  0  0  0
  6  8  1  0  0  0  0
  6 14  2  0  0  0  0
  7  9  2  0  0  0  0
  7 14  1  0  0  0  0
  8 15  2  0  0  0  0
  9 15  1  0  0  0  0
 10 17  2  0  0  0  0
 11 18  2  0  0  0  0
 12 13  1  0  0  0  0
 12 19  2  0  0  0  0
 14 26  1  0  0  0  0
 15 28  1  0  0  0  0
 16 19  1  0  0  0  0
 16 27  1  0  0  0  0
 17 18  1  0  0  0  0
 17 30  1  0  0  0  0
 18 31  1  0  0  0  0
 19 34  1  0  0  0  0
 20 30  2  0  0  0  0
 20 31  1  0  0  0  0
 20 33  1  0  0  0  0
 21 23  1  0  0  0  0
 21 25  1  0  0  0  0
 22 24  1  0  0  0  0
 22 25  1  0  0  0  0
 23 32  1  0  0  0  0
 24 32  1  0  0  0  0
 25 33  1  0  0  0  0
 26 31  1  0  0  0  0
 27 32  1  0  0  0  0
 28 35  1  0  0  0  0
 28 36  1  0  0  0  0
 28 37  1  0  0  0  0
  2 38  1  0  0  0  0
  3 39  1  0  0  0  0
  4 40  1  0  0  0  0
  5 41  1  0  0  0  0
  6 42  1  0  0  0  0
  7 43  1  0  0  0  0
  8 44  1  0  0  0  0
  9 45  1  0  0  0  0
 10 46  1  0  0  0  0
 11 47  1  0  0  0  0
 12 48  1  0  0  0  0
 21 49  1  0  0  0  0
 21 50  1  0  0  0  0
 22 51  1  0  0  0  0
 22 52  1  0  0  0  0
 23 53  1  0  0  0  0
 23 54  1  0  0  0  0
 24 55  1  0  0  0  0
 24 56  1  0  0  0  0
 25 57  1  0  0  0  0
 26 58  1  0  0  0  0
 26 59  1  0  0  0  0
 27 60  1  0  0  0  0
 27 61  1  0  0  0  0
 33 62  1  0  0  0  0
 34 63  1  0  0  0  0
M  END
> <SMILES>
Oc1cc(ccc1CN1CCC(CC1)Nc1nc2ccccc2n1Cc1ccc(cc1)C(F)(F)F)C#N

> <FORMATTED_ID>
H3D-008446

> <MOLFORMULA>
C28H26F3N5O

> <Exact Mass>
505.21

> <XLogP>
7.04

> <TPSA_NOPS>
77.1

> <s_m_source_file>
ligprep_h3d.sdf

> <i_m_source_file_index>
2755

> <i_lp_mmshare_version>
55123

> <i_f3d_flags>
0

> <s_epik_input>
W09IXWMxW2NIXWMoQyNOKVtjSF1bY0hdYzFbQ0gyXU4yW0NIMl1bQ0gyXVtDSF0oW0NIMl1bQ0gyXTIpW05IXWMobjMpbihjKGMzNClbY0hdW2NIXVtjSF1bY0hdNClbQ0gyXWM1W2NIXVtjSF1jKEMoRikoRilGKVtjSF1bY0hdNQ==

> <s_epik_cmdline>
J2VwaWtfcHl0aG9uJywgJy1waHQnLCAnMC41JywgJy1waCcsICc3LjUnLCAnLXRuJywgJzgnLCAnLW1hJywgJzUwMCcsICctaW1hZScsICc8aW5maWxlLm1hZT4nLCAnLW9tYWUnLCAnPG91dGZpbGUubWFlPic=

> <r_epik_Ionization_Penalty>
0.654741

> <r_epik_Ionization_Penalty_Charging>
0

> <r_epik_Ionization_Penalty_Neutral>
0.654741

> <r_epik_State_Penalty>
0.594982

> <r_epik_Charging_Adjusted_Penalty>
0.594982

> <i_epik_Tot_Q>
0

> <i_epik_Tot_abs_Q>
0

> <s_lp_Force_Field>
S-OPLS

> <r_lp_Energy>
35.7634

> <b_lp_Chiralities_Consistent>
1

> <s_lp_Variant>
ligprep_h3d.sdf:2755-1

> <ROCS_ShapeQuery>
_7L13

> <ROCS_TanimotoCombo>
0.701 

> <ROCS_ShapeTanimoto>
0.603 

> <ROCS_ColorTanimoto>
0.098 

> <ROCS_RefTversky>
0.762 

> <ROCS_RefColorTversky>
0.197 

> <ROCS_RefTverskyCombo>
0.958 

> <ROCS_FitTversky>
0.743 

> <ROCS_FitColorTversky>
0.164 

> <ROCS_FitTverskyCombo>
0.906 

> <ROCS_ColorScore>
-1.788

> <ROCS_Overlap>
1267.076

> <ROCS_Rank>
706                 

$$$$
ligprep_h3d.sdf:848_79
  -OEChem-08212117123D

 64 69  0     1  0  0  0  0  0999 V2000
  -20.9788   -5.1447  -29.5085 C   0  0  0  0  0  0  0  0  0  0  0  0
  -21.7499   -4.3827  -30.3884 C   0  0  0  0  0  0  0  0  0  0  0  0
  -21.0909   -4.9016  -28.1177 C   0  0  0  0  0  0  0  0  0  0  0  0
  -21.9845   -3.9441  -27.5829 C   0  0  0  0  0  0  0  0  0  0  0  0
  -22.5924   -3.4278  -29.8634 C   0  0  0  0  0  0  0  0  0  0  0  0
  -22.7389   -3.1737  -28.4994 C   0  0  0  0  0  0  0  0  0  0  0  0
  -21.9456   -4.2753  -31.7778 C   0  0  0  0  0  0  0  0  0  0  0  0
  -18.9189   -3.8501  -26.2032 C   0  0  0  0  0  0  0  0  0  0  0  0
  -19.2748   -6.1130  -25.0206 C   0  0  0  0  0  0  0  0  0  0  0  0
  -17.0106   -5.3663  -25.7233 C   0  0  0  0  0  0  0  0  0  0  0  0
  -19.9701   -3.7784  -34.2544 C   0  0  0  0  0  0  0  0  0  0  0  0
  -20.2295   -5.7274  -27.1999 C   0  0  0  0  0  0  0  0  0  0  0  0
  -19.4639   -6.1559  -33.7486 C   0  0  0  0  0  0  0  0  0  0  0  0
  -21.7722   -6.3702  -33.1363 C   0  0  0  0  0  0  0  0  0  0  0  0
  -23.0415   -2.7903  -25.6504 C   0  0  0  0  0  0  0  0  0  0  0  0
  -19.9172   -4.8141  -33.1744 C   0  0  2  0  0  0  0  0  0  0  0  0
  -21.2173   -4.4822  -25.2365 C   0  0  2  0  0  0  0  0  0  0  0  0
  -20.7632   -6.8171  -34.1919 C   0  0  2  0  0  0  0  0  0  0  0  0
  -23.4149   -3.0986  -24.1977 C   0  0  1  0  0  0  0  0  0  0  0  0
  -21.0452   -3.5478  -24.0036 C   0  0  2  0  0  0  0  0  0  0  0  0
  -19.8919   -4.9952  -25.8772 C   0  0  0  0  0  0  0  0  0  0  0  0
  -24.4113   -4.2502  -24.0781 C   0  0  0  0  0  0  0  0  0  0  0  0
  -20.0949   -4.0373  -22.9173 C   0  0  0  0  0  0  0  0  0  0  0  0
  -18.6293   -2.6344  -35.8284 C   0  0  0  0  0  0  0  0  0  0  0  0
  -22.8360   -3.3296  -32.0927 N   0  0  0  0  0  0  0  0  0  0  0  0
  -17.5788   -4.2030  -26.2222 N   0  0  0  0  0  0  0  0  0  0  0  0
  -17.8987   -6.2461  -25.1211 N   0  0  0  0  0  0  0  0  0  0  0  0
  -22.0938   -3.7675  -26.2015 N   0  0  3  0  0  0  0  0  0  0  0  0
  -21.2678   -5.0762  -32.6771 N   0  0  0  0  0  0  0  0  0  0  0  0
  -19.2883   -2.7120  -26.4923 O   0  0  0  0  0  0  0  0  0  0  0  0
  -19.9533   -6.8988  -24.3577 O   0  0  0  0  0  0  0  0  0  0  0  0
  -15.7988   -5.5838  -25.7749 O   0  0  0  0  0  0  0  0  0  0  0  0
  -20.9902   -3.1948  -34.5947 O   0  0  0  0  0  0  0  0  0  0  0  0
  -23.2426   -2.7926  -30.8767 O   0  0  0  0  0  0  0  0  0  0  0  0
  -22.3057   -3.3682  -23.3459 O   0  0  0  0  0  0  0  0  0  0  0  0
  -20.6197   -8.2240  -34.2188 O   0  0  0  0  0  0  0  0  0  0  0  0
  -18.7238   -3.6026  -34.7787 O   0  0  0  0  0  0  0  0  0  0  0  0
  -23.5110   -2.1430  -28.1358 F   0  0  0  0  0  0  0  0  0  0  0  0
  -20.2985   -5.9040  -29.8838 H   0  0  0  0  0  0  0  0  0  0  0  0
  -20.7665   -6.6649  -27.0004 H   0  0  0  0  0  0  0  0  0  0  0  0
  -19.3006   -6.0018  -27.7186 H   0  0  0  0  0  0  0  0  0  0  0  0
  -18.7637   -6.0579  -34.5850 H   0  0  0  0  0  0  0  0  0  0  0  0
  -18.9722   -6.7596  -32.9755 H   0  0  0  0  0  0  0  0  0  0  0  0
  -22.7766   -6.2794  -33.5659 H   0  0  0  0  0  0  0  0  0  0  0  0
  -21.8215   -7.0843  -32.3042 H   0  0  0  0  0  0  0  0  0  0  0  0
  -23.9533   -2.8244  -26.2820 H   0  0  0  0  0  0  0  0  0  0  0  0
  -22.7198   -1.7384  -25.6924 H   0  0  0  0  0  0  0  0  0  0  0  0
  -19.2326   -4.4735  -32.3941 H   0  0  0  0  0  0  0  0  0  0  0  0
  -21.8039   -5.3543  -24.9084 H   0  0  0  0  0  0  0  0  0  0  0  0
  -21.0556   -6.4651  -35.1880 H   0  0  0  0  0  0  0  0  0  0  0  0
  -23.9529   -2.1852  -23.7646 H   0  0  0  0  0  0  0  0  0  0  0  0
  -20.6902   -2.5486  -24.3160 H   0  0  0  0  0  0  0  0  0  0  0  0
  -23.9718   -5.1664  -24.4728 H   0  0  0  0  0  0  0  0  0  0  0  0
  -25.3159   -4.0209  -24.6416 H   0  0  0  0  0  0  0  0  0  0  0  0
  -24.6764   -4.4072  -23.0323 H   0  0  0  0  0  0  0  0  0  0  0  0
  -20.4009   -5.0246  -22.5715 H   0  0  0  0  0  0  0  0  0  0  0  0
  -20.1067   -3.3476  -22.0734 H   0  0  0  0  0  0  0  0  0  0  0  0
  -19.0799   -4.0987  -23.3100 H   0  0  0  0  0  0  0  0  0  0  0  0
  -17.5950   -2.5718  -36.1754 H   0  0  0  0  0  0  0  0  0  0  0  0
  -18.9602   -1.6608  -35.4580 H   0  0  0  0  0  0  0  0  0  0  0  0
  -19.2710   -2.9442  -36.6566 H   0  0  0  0  0  0  0  0  0  0  0  0
  -16.9423   -3.5364  -26.6483 H   0  0  0  0  0  0  0  0  0  0  0  0
  -17.4884   -7.0514  -24.6571 H   0  0  0  0  0  0  0  0  0  0  0  0
  -19.9081   -8.4278  -34.8502 H   0  0  0  0  0  0  0  0  0  0  0  0
  1  2  2  0  0  0  0
  1  3  1  0  0  0  0
  2  5  1  0  0  0  0
  2  7  1  0  0  0  0
  3  4  2  0  0  0  0
  3 12  1  0  0  0  0
  4  6  1  0  0  0  0
  4 28  1  0  0  0  0
  5  6  2  0  0  0  0
  5 34  1  0  0  0  0
  6 38  1  0  0  0  0
  7 25  2  0  0  0  0
  7 29  1  0  0  0  0
  8 21  1  0  0  0  0
  8 26  1  0  0  0  0
  8 30  2  0  0  0  0
  9 21  1  0  0  0  0
  9 27  1  0  0  0  0
  9 31  2  0  0  0  0
 10 26  1  0  0  0  0
 10 27  1  0  0  0  0
 10 32  2  0  0  0  0
 11 16  1  0  0  0  0
 11 33  2  0  0  0  0
 11 37  1  0  0  0  0
 12 21  1  0  0  0  0
 13 16  1  0  0  0  0
 13 18  1  0  0  0  0
 14 18  1  0  0  0  0
 14 29  1  0  0  0  0
 15 19  1  0  0  0  0
 15 28  1  0  0  0  0
 16 29  1  0  0  0  0
 17 20  1  0  0  0  0
 17 21  1  0  0  0  0
 17 28  1  0  0  0  0
 18 36  1  0  0  0  0
 19 22  1  0  0  0  0
 19 35  1  0  0  0  0
 20 23  1  0  0  0  0
 20 35  1  0  0  0  0
 24 37  1  0  0  0  0
 25 34  1  0  0  0  0
  1 39  1  0  0  0  0
 12 40  1  0  0  0  0
 12 41  1  0  0  0  0
 13 42  1  0  0  0  0
 13 43  1  0  0  0  0
 14 44  1  0  0  0  0
 14 45  1  0  0  0  0
 15 46  1  0  0  0  0
 15 47  1  0  0  0  0
 16 48  1  0  0  0  0
 17 49  1  0  0  0  0
 18 50  1  0  0  0  0
 19 51  1  0  0  0  0
 20 52  1  0  0  0  0
 22 53  1  0  0  0  0
 22 54  1  0  0  0  0
 22 55  1  0  0  0  0
 23 56  1  0  0  0  0
 23 57  1  0  0  0  0
 23 58  1  0  0  0  0
 24 59  1  0  0  0  0
 24 60  1  0  0  0  0
 24 61  1  0  0  0  0
 26 62  1  0  0  0  0
 27 63  1  0  0  0  0
 36 64  1  0  0  0  0
M  END
> <SMILES>
COC(=O)C1C[C@@H](O)CN1c1noc2c(c3c(cc12)CC1([C@H]2[C@H](C)O[C@H](C)CN23)C(=O)NC(=O)NC1=O)F

> <FORMATTED_ID>
H3D-005655

> <MOLFORMULA>
C24H26FN5O8

> <Exact Mass>
531.18

> <XLogP>
-0.34

> <TPSA_NOPS>
163.8

> <s_m_source_file>
ligprep_h3d.sdf

> <i_m_source_file_index>
848

> <i_lp_mmshare_version>
55123

> <i_f3d_flags>
0

> <s_epik_input>
W0NIM11PQyg9TylbQ0BASF0xW0NIMl1bQ0BASF0oW09IXSlbQ0gyXU4xYzJub2MoYzNGKWMyW2NIXWMoW0NIMl00KWMzTihbQ0gyXVtDQEBIXShbQ0gzXSlPW0NASF01W0NIM10pW0NASF01QzQ2Qyg9TylbTkhdQyg9TylbTkhdQzY9Tw==

> <s_epik_cmdline>
J2VwaWtfcHl0aG9uJywgJy1waHQnLCAnMC41JywgJy1waCcsICc3LjUnLCAnLXRuJywgJzgnLCAnLW1hJywgJzUwMCcsICctaW1hZScsICc8aW5maWxlLm1hZT4nLCAnLW9tYWUnLCAnPG91dGZpbGUubWFlPic=

> <r_lp_tautomer_probability>
1

> <r_epik_Ionization_Penalty>
0.369125

> <r_epik_Ionization_Penalty_Charging>
0

> <r_epik_Ionization_Penalty_Neutral>
0.369125

> <r_epik_State_Penalty>
0.366447

> <r_epik_Charging_Adjusted_Penalty>
0.366447

> <i_epik_Tot_Q>
0

> <i_epik_Tot_abs_Q>
0

> <s_epik_Chemistry_Notes>
This compound has an ester and may undergo hydrolysis at high or low pH.

> <s_lp_Force_Field>
S-OPLS

> <r_lp_Energy>
50.1605

> <b_lp_Chiralities_Consistent>
1

> <s_lp_Variant>
ligprep_h3d.sdf:848-1

> <ROCS_ShapeQuery>
_7L13

> <ROCS_TanimotoCombo>
0.705 

> <ROCS_ShapeTanimoto>
0.581 

> <ROCS_ColorTanimoto>
0.124 

> <ROCS_RefTversky>
0.762 

> <ROCS_RefColorTversky>
0.296 

> <ROCS_RefTverskyCombo>
1.058 

> <ROCS_FitTversky>
0.710 

> <ROCS_FitColorTversky>
0.177 

> <ROCS_FitTverskyCombo>
0.887 

> <ROCS_ColorScore>
-2.771

> <ROCS_Overlap>
1270.368

> <ROCS_Rank>
707                 

$$$$
ligprep_h3d.sdf:836_120
  -OEChem-08212117123D

 60 65  0     1  0  0  0  0  0999 V2000
  -20.9655   -5.1319  -29.5103 C   0  0  0  0  0  0  0  0  0  0  0  0
  -21.7449   -4.3781  -30.3899 C   0  0  0  0  0  0  0  0  0  0  0  0
  -21.0801   -4.8905  -28.1195 C   0  0  0  0  0  0  0  0  0  0  0  0
  -21.9841   -3.9430  -27.5843 C   0  0  0  0  0  0  0  0  0  0  0  0
  -22.5978   -3.4327  -29.8645 C   0  0  0  0  0  0  0  0  0  0  0  0
  -22.7470   -3.1806  -28.5005 C   0  0  0  0  0  0  0  0  0  0  0  0
  -21.9419   -4.2724  -31.7793 C   0  0  0  0  0  0  0  0  0  0  0  0
  -18.9197   -3.8159  -26.2047 C   0  0  0  0  0  0  0  0  0  0  0  0
  -19.2507   -6.0830  -25.0228 C   0  0  0  0  0  0  0  0  0  0  0  0
  -16.9948   -5.3113  -25.7255 C   0  0  0  0  0  0  0  0  0  0  0  0
  -19.9404   -3.4998  -33.9971 C   0  0  0  0  0  0  0  0  0  0  0  0
  -20.2097   -5.7071  -27.2019 C   0  0  0  0  0  0  0  0  0  0  0  0
  -19.6409   -5.9395  -34.1747 C   0  0  0  0  0  0  0  0  0  0  0  0
  -21.7526   -6.3614  -33.1321 C   0  0  0  0  0  0  0  0  0  0  0  0
  -23.0536   -2.8016  -25.6513 C   0  0  0  0  0  0  0  0  0  0  0  0
  -19.9242   -4.7770  -33.2196 C   0  0  2  0  0  0  0  0  0  0  0  0
  -21.2109   -4.4735  -25.2380 C   0  0  2  0  0  0  0  0  0  0  0  0
  -20.5015   -7.0725  -33.6377 C   0  0  1  0  0  0  0  0  0  0  0  0
  -23.4235   -3.1144  -24.1987 C   0  0  1  0  0  0  0  0  0  0  0  0
  -21.0490   -3.5377  -24.0048 C   0  0  2  0  0  0  0  0  0  0  0  0
  -19.8801   -4.9717  -25.8790 C   0  0  0  0  0  0  0  0  0  0  0  0
  -24.4072   -4.2769  -24.0794 C   0  0  0  0  0  0  0  0  0  0  0  0
  -20.0933   -4.0171  -22.9187 C   0  0  0  0  0  0  0  0  0  0  0  0
  -22.8426   -3.3364  -32.0937 N   0  0  0  0  0  0  0  0  0  0  0  0
  -17.5758   -4.1541  -26.2239 N   0  0  0  0  0  0  0  0  0  0  0  0
  -17.8732   -6.2010  -25.1235 N   0  0  0  0  0  0  0  0  0  0  0  0
  -22.0952   -3.7681  -26.2028 N   0  0  3  0  0  0  0  0  0  0  0  0
  -21.2558   -5.0650  -32.6784 N   0  0  0  0  0  0  0  0  0  0  0  0
  -20.7030   -2.6021  -33.5435 O   0  5  0  0  0  0  0  0  0  0  0  0
  -19.3016   -2.6818  -26.4934 O   0  0  0  0  0  0  0  0  0  0  0  0
  -19.9205   -6.8764  -24.3601 O   0  0  0  0  0  0  0  0  0  0  0  0
  -15.7808   -5.5155  -25.7771 O   0  0  0  0  0  0  0  0  0  0  0  0
  -19.1859   -3.4867  -35.0099 O   0  0  0  0  0  0  0  0  0  0  0  0
  -23.2550   -2.8043  -30.8775 O   0  0  0  0  0  0  0  0  0  0  0  0
  -22.3113   -3.3722  -23.3471 O   0  0  0  0  0  0  0  0  0  0  0  0
  -20.8026   -7.9992  -34.6623 O   0  0  0  0  0  0  0  0  0  0  0  0
  -23.5304   -2.1586  -28.1364 F   0  0  0  0  0  0  0  0  0  0  0  0
  -20.2769   -5.8835  -29.8859 H   0  0  0  0  0  0  0  0  0  0  0  0
  -20.7364   -6.6506  -27.0027 H   0  0  0  0  0  0  0  0  0  0  0  0
  -19.2779   -5.9712  -27.7208 H   0  0  0  0  0  0  0  0  0  0  0  0
  -19.8797   -5.6938  -35.2139 H   0  0  0  0  0  0  0  0  0  0  0  0
  -18.5825   -6.2144  -34.1032 H   0  0  0  0  0  0  0  0  0  0  0  0
  -22.5112   -6.2418  -33.9099 H   0  0  0  0  0  0  0  0  0  0  0  0
  -22.1771   -6.9044  -32.2819 H   0  0  0  0  0  0  0  0  0  0  0  0
  -23.9650   -2.8455  -26.2829 H   0  0  0  0  0  0  0  0  0  0  0  0
  -22.7434   -1.7462  -25.6929 H   0  0  0  0  0  0  0  0  0  0  0  0
  -19.1452   -4.7289  -32.4450 H   0  0  0  0  0  0  0  0  0  0  0  0
  -21.7879   -5.3521  -24.9102 H   0  0  0  0  0  0  0  0  0  0  0  0
  -19.9817   -7.6156  -32.8280 H   0  0  0  0  0  0  0  0  0  0  0  0
  -23.9715   -2.2071  -23.7652 H   0  0  0  0  0  0  0  0  0  0  0  0
  -20.7050   -2.5345  -24.3169 H   0  0  0  0  0  0  0  0  0  0  0  0
  -23.9577   -5.1881  -24.4744 H   0  0  0  0  0  0  0  0  0  0  0  0
  -25.3143   -4.0574  -24.6428 H   0  0  0  0  0  0  0  0  0  0  0  0
  -24.6705   -4.4371  -23.0337 H   0  0  0  0  0  0  0  0  0  0  0  0
  -20.3885   -5.0079  -22.5733 H   0  0  0  0  0  0  0  0  0  0  0  0
  -20.1127   -3.3279  -22.0746 H   0  0  0  0  0  0  0  0  0  0  0  0
  -19.0778   -4.0673  -23.3116 H   0  0  0  0  0  0  0  0  0  0  0  0
  -16.9467   -3.4804  -26.6498 H   0  0  0  0  0  0  0  0  0  0  0  0
  -17.4541   -7.0019  -24.6598 H   0  0  0  0  0  0  0  0  0  0  0  0
  -19.9547   -8.3447  -34.9847 H   0  0  0  0  0  0  0  0  0  0  0  0
  1  2  2  0  0  0  0
  1  3  1  0  0  0  0
  2  5  1  0  0  0  0
  2  7  1  0  0  0  0
  3  4  2  0  0  0  0
  3 12  1  0  0  0  0
  4  6  1  0  0  0  0
  4 27  1  0  0  0  0
  5  6  2  0  0  0  0
  5 34  1  0  0  0  0
  6 37  1  0  0  0  0
  7 24  2  0  0  0  0
  7 28  1  0  0  0  0
  8 21  1  0  0  0  0
  8 25  1  0  0  0  0
  8 30  2  0  0  0  0
  9 21  1  0  0  0  0
  9 26  1  0  0  0  0
  9 31  2  0  0  0  0
 10 25  1  0  0  0  0
 10 26  1  0  0  0  0
 10 32  2  0  0  0  0
 11 16  1  0  0  0  0
 11 29  1  0  0  0  0
 11 33  2  0  0  0  0
 12 21  1  0  0  0  0
 13 16  1  0  0  0  0
 13 18  1  0  0  0  0
 14 18  1  0  0  0  0
 14 28  1  0  0  0  0
 15 19  1  0  0  0  0
 15 27  1  0  0  0  0
 16 28  1  0  0  0  0
 17 20  1  0  0  0  0
 17 21  1  0  0  0  0
 17 27  1  0  0  0  0
 18 36  1  0  0  0  0
 19 22  1  0  0  0  0
 19 35  1  0  0  0  0
 20 23  1  0  0  0  0
 20 35  1  0  0  0  0
 24 34  1  0  0  0  0
  1 38  1  0  0  0  0
 12 39  1  0  0  0  0
 12 40  1  0  0  0  0
 13 41  1  0  0  0  0
 13 42  1  0  0  0  0
 14 43  1  0  0  0  0
 14 44  1  0  0  0  0
 15 45  1  0  0  0  0
 15 46  1  0  0  0  0
 16 47  1  0  0  0  0
 17 48  1  0  0  0  0
 18 49  1  0  0  0  0
 19 50  1  0  0  0  0
 20 51  1  0  0  0  0
 22 52  1  0  0  0  0
 22 53  1  0  0  0  0
 22 54  1  0  0  0  0
 23 55  1  0  0  0  0
 23 56  1  0  0  0  0
 23 57  1  0  0  0  0
 25 58  1  0  0  0  0
 26 59  1  0  0  0  0
 36 60  1  0  0  0  0
M  CHG  1  29  -1
M  END
> <SMILES>
C[C@@H]1CN2[C@H]([C@H](C)O1)C1(Cc3cc4c(noc4c(c32)F)N2C[C@@H](O)C[C@H]2C(=O)O)C(=O)NC(=O)NC1=O

> <FORMATTED_ID>
H3D-005608

> <MOLFORMULA>
C23H24FN5O8

> <Exact Mass>
517.16

> <XLogP>
-1.05

> <TPSA_NOPS>
174.8

> <s_m_source_file>
ligprep_h3d.sdf

> <i_m_source_file_index>
836

> <i_lp_mmshare_version>
55123

> <i_f3d_flags>
0

> <s_epik_input>
Tz1DMVtOSF1DKD1PKVtOSF1DKD1PKUMxMltDQEBIXTNOKFtDSDJdW0NAQEhdKFtDSDNdKU9bQ0BIXTNbQ0gzXSljNGMoW0NIMl0yKVtjSF1jNWMoYzRGKW9uYzVONltDSDJdW0NAQEhdKFtPSF0pW0NIMl1bQ0BIXTZDKD1PKVtPSF0=

> <s_epik_cmdline>
J2VwaWtfcHl0aG9uJywgJy1waHQnLCAnMC41JywgJy1waCcsICc3LjUnLCAnLXRuJywgJzgnLCAnLW1hJywgJzUwMCcsICctaW1hZScsICc8aW5maWxlLm1hZT4nLCAnLW9tYWUnLCAnPG91dGZpbGUubWFlPic=

> <r_lp_tautomer_probability>
1

> <r_epik_Ionization_Penalty>
0.369196

> <r_epik_Ionization_Penalty_Charging>
6.67865e-05

> <r_epik_Ionization_Penalty_Neutral>
0.36913

> <r_epik_State_Penalty>
0.366447

> <r_epik_Charging_Adjusted_Penalty>
0.366514

> <i_epik_Tot_Q>
-1

> <i_epik_Tot_abs_Q>
1

> <s_lp_Force_Field>
S-OPLS

> <r_lp_Energy>
44.0602

> <b_lp_Chiralities_Consistent>
1

> <s_lp_Variant>
ligprep_h3d.sdf:836-1

> <ROCS_ShapeQuery>
_7L13

> <ROCS_TanimotoCombo>
0.705 

> <ROCS_ShapeTanimoto>
0.591 

> <ROCS_ColorTanimoto>
0.114 

> <ROCS_RefTversky>
0.762 

> <ROCS_RefColorTversky>
0.293 

> <ROCS_RefTverskyCombo>
1.055 

> <ROCS_FitTversky>
0.725 

> <ROCS_FitColorTversky>
0.157 

> <ROCS_FitTverskyCombo>
0.883 

> <ROCS_ColorScore>
-2.769

> <ROCS_Overlap>
1268.602

> <ROCS_Rank>
708                 

$$$$
ligprep_h3d.sdf:4721_1743
  -OEChem-08212117123D

 61 65  0     1  0  0  0  0  0999 V2000
  -24.9811   -5.0421  -22.5553 C   0  0  0  0  0  0  0  0  0  0  0  0
  -23.6688   -4.7932  -22.9573 C   0  0  0  0  0  0  0  0  0  0  0  0
  -26.0367   -4.8096  -23.4371 C   0  0  0  0  0  0  0  0  0  0  0  0
  -20.1088   -4.2162  -34.1613 C   0  0  0  0  0  0  0  0  0  0  0  0
  -20.4451   -6.0922  -32.6765 C   0  0  0  0  0  0  0  0  0  0  0  0
  -23.4121   -4.3118  -24.2410 C   0  0  0  0  0  0  0  0  0  0  0  0
  -25.7799   -4.3282  -24.7208 C   0  0  0  0  0  0  0  0  0  0  0  0
  -19.6040   -5.0775  -35.1354 C   0  0  0  0  0  0  0  0  0  0  0  0
  -19.9403   -6.9536  -33.6506 C   0  0  0  0  0  0  0  0  0  0  0  0
  -17.0965   -6.2374  -26.0919 C   0  0  0  0  0  0  0  0  0  0  0  0
  -16.9321   -3.8916  -25.5687 C   0  0  0  0  0  0  0  0  0  0  0  0
  -15.8412   -6.4195  -25.5291 C   0  0  0  0  0  0  0  0  0  0  0  0
  -15.6811   -4.1331  -25.0191 C   0  0  0  0  0  0  0  0  0  0  0  0
  -20.5293   -4.7235  -32.9318 C   0  0  0  0  0  0  0  0  0  0  0  0
  -17.6438   -4.9581  -26.1097 C   0  0  0  0  0  0  0  0  0  0  0  0
  -24.4676   -4.0793  -25.1228 C   0  0  0  0  0  0  0  0  0  0  0  0
  -19.5198   -6.4462  -34.8800 C   0  0  0  0  0  0  0  0  0  0  0  0
  -22.0907   -4.4737  -31.0014 C   0  0  0  0  0  0  0  0  0  0  0  0
  -22.6944   -5.1019  -28.6791 C   0  0  0  0  0  0  0  0  0  0  0  0
  -19.8345   -5.6359  -27.2864 C   0  0  0  0  0  0  0  0  0  0  0  0
  -19.8392   -3.6752  -26.5306 C   0  0  0  0  0  0  0  0  0  0  0  0
  -20.6128   -3.8961  -29.0249 C   0  0  0  0  0  0  0  0  0  0  0  0
  -22.2159   -4.6116  -27.3163 C   0  0  1  0  0  0  0  0  0  0  0  0
  -20.7225   -4.3939  -27.5798 C   0  0  0  0  0  0  0  0  0  0  0  0
  -21.0726   -3.7975  -31.8846 C   0  0  0  0  0  0  0  0  0  0  0  0
  -22.9112   -3.3118  -26.9157 C   0  0  0  0  0  0  0  0  0  0  0  0
  -15.1776   -5.3749  -25.0152 N   0  3  0  0  0  0  0  0  0  0  0  0
  -18.9091   -4.7438  -26.6738 N   0  0  0  0  0  0  0  0  0  0  0  0
  -21.8005   -4.4774  -29.6463 N   0  0  0  0  0  0  0  0  0  0  0  0
  -24.2108   -3.5974  -26.4085 N   0  0  0  0  0  0  0  0  0  0  0  0
  -23.0999   -4.9829  -31.4920 O   0  0  0  0  0  0  0  0  0  0  0  0
  -19.0284   -7.2868  -35.8311 O   0  0  0  0  0  0  0  0  0  0  0  0
  -25.1810   -5.4167  -21.5555 H   0  0  0  0  0  0  0  0  0  0  0  0
  -22.8473   -4.9741  -22.2707 H   0  0  0  0  0  0  0  0  0  0  0  0
  -27.0585   -5.0035  -23.1239 H   0  0  0  0  0  0  0  0  0  0  0  0
  -20.1707   -3.1513  -34.3688 H   0  0  0  0  0  0  0  0  0  0  0  0
  -20.7703   -6.4963  -31.7213 H   0  0  0  0  0  0  0  0  0  0  0  0
  -22.3860   -4.1210  -24.5445 H   0  0  0  0  0  0  0  0  0  0  0  0
  -26.6104   -4.1510  -25.3995 H   0  0  0  0  0  0  0  0  0  0  0  0
  -19.2782   -4.6763  -36.0914 H   0  0  0  0  0  0  0  0  0  0  0  0
  -19.8776   -8.0186  -33.4458 H   0  0  0  0  0  0  0  0  0  0  0  0
  -17.6326   -7.0845  -26.5087 H   0  0  0  0  0  0  0  0  0  0  0  0
  -17.3381   -2.8848  -25.5725 H   0  0  0  0  0  0  0  0  0  0  0  0
  -15.3387   -7.3750  -25.4735 H   0  0  0  0  0  0  0  0  0  0  0  0
  -15.0587   -3.3671  -24.5770 H   0  0  0  0  0  0  0  0  0  0  0  0
  -22.5571   -6.1854  -28.7752 H   0  0  0  0  0  0  0  0  0  0  0  0
  -23.7403   -4.8674  -28.9004 H   0  0  0  0  0  0  0  0  0  0  0  0
  -20.2471   -6.3584  -26.5735 H   0  0  0  0  0  0  0  0  0  0  0  0
  -19.4178   -6.1632  -28.1487 H   0  0  0  0  0  0  0  0  0  0  0  0
  -19.4286   -2.7054  -26.8225 H   0  0  0  0  0  0  0  0  0  0  0  0
  -20.2554   -3.6219  -25.5191 H   0  0  0  0  0  0  0  0  0  0  0  0
  -20.7002   -2.8064  -29.0884 H   0  0  0  0  0  0  0  0  0  0  0  0
  -19.7039   -4.2180  -29.5410 H   0  0  0  0  0  0  0  0  0  0  0  0
  -22.3979   -5.3642  -26.5412 H   0  0  0  0  0  0  0  0  0  0  0  0
  -20.2626   -3.4222  -31.2569 H   0  0  0  0  0  0  0  0  0  0  0  0
  -21.5403   -2.9253  -32.3439 H   0  0  0  0  0  0  0  0  0  0  0  0
  -22.2961   -2.8395  -26.1518 H   0  0  0  0  0  0  0  0  0  0  0  0
  -22.9751   -2.6921  -27.8083 H   0  0  0  0  0  0  0  0  0  0  0  0
  -14.2563   -5.5303  -24.6069 H   0  0  0  0  0  0  0  0  0  0  0  0
  -25.0241   -3.4446  -27.0105 H   0  0  0  0  0  0  0  0  0  0  0  0
  -19.0331   -8.2014  -35.5066 H   0  0  0  0  0  0  0  0  0  0  0  0
  1  2  2  0  0  0  0
  1  3  1  0  0  0  0
  2  6  1  0  0  0  0
  3  7  2  0  0  0  0
  4  8  1  0  0  0  0
  4 14  2  0  0  0  0
  5  9  2  0  0  0  0
  5 14  1  0  0  0  0
  6 16  2  0  0  0  0
  7 16  1  0  0  0  0
  8 17  2  0  0  0  0
  9 17  1  0  0  0  0
 10 12  1  0  0  0  0
 10 15  2  0  0  0  0
 11 13  2  0  0  0  0
 11 15  1  0  0  0  0
 12 27  2  0  0  0  0
 13 27  1  0  0  0  0
 14 25  1  0  0  0  0
 15 28  1  0  0  0  0
 16 30  1  0  0  0  0
 17 32  1  0  0  0  0
 18 25  1  0  0  0  0
 18 29  1  0  0  0  0
 18 31  2  0  0  0  0
 19 23  1  0  0  0  0
 19 29  1  0  0  0  0
 20 24  1  0  0  0  0
 20 28  1  0  0  0  0
 21 24  1  0  0  0  0
 21 28  1  0  0  0  0
 22 24  1  0  0  0  0
 22 29  1  0  0  0  0
 23 24  1  0  0  0  0
 23 26  1  0  0  0  0
 26 30  1  0  0  0  0
  1 33  1  0  0  0  0
  2 34  1  0  0  0  0
  3 35  1  0  0  0  0
  4 36  1  0  0  0  0
  5 37  1  0  0  0  0
  6 38  1  0  0  0  0
  7 39  1  0  0  0  0
  8 40  1  0  0  0  0
  9 41  1  0  0  0  0
 10 42  1  0  0  0  0
 11 43  1  0  0  0  0
 12 44  1  0  0  0  0
 13 45  1  0  0  0  0
 19 46  1  0  0  0  0
 19 47  1  0  0  0  0
 20 48  1  0  0  0  0
 20 49  1  0  0  0  0
 21 50  1  0  0  0  0
 21 51  1  0  0  0  0
 22 52  1  0  0  0  0
 22 53  1  0  0  0  0
 23 54  1  0  0  0  0
 25 55  1  0  0  0  0
 25 56  1  0  0  0  0
 26 57  1  0  0  0  0
 26 58  1  0  0  0  0
 27 59  1  0  0  0  0
 30 60  1  0  0  0  0
 32 61  1  0  0  0  0
M  CHG  1  27   1
M  END
> <SMILES>
Oc1ccc(cc1)CC(=O)N1CC(CNc2ccccc2)C2(C1)CN(C2)c1ccncc1

> <FORMATTED_ID>
H3D-006925

> <MOLFORMULA>
C26H28N4O2

> <Exact Mass>
428.22

> <XLogP>
2.51

> <TPSA_NOPS>
68.7

> <s_m_source_file>
ligprep_h3d.sdf

> <i_m_source_file_index>
4721

> <i_lp_mmshare_version>
55123

> <i_f3d_flags>
0

> <s_epik_input>
W09IXWMxW2NIXVtjSF1jKFtjSF1bY0hdMSlbQ0gyXUMoPU8pTihbQ0gyXTIpW0NIMl1bQ0BIXShbQ0gyXVtOSF1jM1tjSF1bY0hdW2NIXVtjSF1bY0hdMylDMjRbQ0gyXU4oW0NIMl00KWM1W2NIXVtjSF1uW2NIXVtjSF01

> <s_epik_cmdline>
J2VwaWtfcHl0aG9uJywgJy1waHQnLCAnMC41JywgJy1waCcsICc3LjUnLCAnLXRuJywgJzgnLCAnLW1hJywgJzUwMCcsICctaW1hZScsICc8aW5maWxlLm1hZT4nLCAnLW9tYWUnLCAnPG91dGZpbGUubWFlPic=

> <r_lp_tautomer_probability>
1

> <r_epik_Ionization_Penalty>
0.00979247

> <r_epik_Ionization_Penalty_Charging>
0.00497383

> <r_epik_Ionization_Penalty_Neutral>
0.00481863

> <r_epik_State_Penalty>
-0

> <r_epik_Charging_Adjusted_Penalty>
0.00497383

> <i_epik_Tot_Q>
1

> <i_epik_Tot_abs_Q>
1

> <s_lp_Force_Field>
S-OPLS

> <r_lp_Energy>
46.8362

> <b_lp_Chiralities_Consistent>
1

> <s_lp_Variant>
ligprep_h3d.sdf:4721-1

> <ROCS_ShapeQuery>
_7L13

> <ROCS_TanimotoCombo>
0.733 

> <ROCS_ShapeTanimoto>
0.673 

> <ROCS_ColorTanimoto>
0.060 

> <ROCS_RefTversky>
0.762 

> <ROCS_RefColorTversky>
0.124 

> <ROCS_RefTverskyCombo>
0.885 

> <ROCS_FitTversky>
0.852 

> <ROCS_FitColorTversky>
0.103 

> <ROCS_FitTverskyCombo>
0.956 

> <ROCS_ColorScore>
-1.125

> <ROCS_Overlap>
1257.622

> <ROCS_Rank>
709                 

$$$$
ligprep_h3d.sdf:725_28
  -OEChem-08212117123D

 58 63  0     1  0  0  0  0  0999 V2000
  -20.9574   -5.1406  -29.4962 C   0  0  0  0  0  0  0  0  0  0  0  0
  -21.7304   -4.3852  -30.3804 C   0  0  0  0  0  0  0  0  0  0  0  0
  -21.0778   -4.8958  -28.1071 C   0  0  0  0  0  0  0  0  0  0  0  0
  -21.9802   -3.9429  -27.5780 C   0  0  0  0  0  0  0  0  0  0  0  0
  -22.5825   -3.4356  -29.8607 C   0  0  0  0  0  0  0  0  0  0  0  0
  -22.7372   -3.1800  -28.4980 C   0  0  0  0  0  0  0  0  0  0  0  0
  -21.9208   -4.2815  -31.7709 C   0  0  0  0  0  0  0  0  0  0  0  0
  -18.9016   -3.7780  -26.2283 C   0  0  0  0  0  0  0  0  0  0  0  0
  -19.2090   -5.9891  -24.9962 C   0  0  0  0  0  0  0  0  0  0  0  0
  -17.0390   -5.0966  -25.8125 C   0  0  0  0  0  0  0  0  0  0  0  0
  -20.2193   -5.7126  -27.1788 C   0  0  0  0  0  0  0  0  0  0  0  0
  -20.7739   -6.4376  -32.3675 C   0  0  0  0  0  0  0  0  0  0  0  0
  -20.8712   -4.6621  -34.0171 C   0  0  0  0  0  0  0  0  0  0  0  0
  -23.0701   -2.8139  -25.6491 C   0  0  0  0  0  0  0  0  0  0  0  0
  -21.1966   -4.4514  -25.2301 C   0  0  2  0  0  0  0  0  0  0  0  0
  -20.3568   -6.9838  -33.7347 C   0  0  2  0  0  0  0  0  0  0  0  0
  -19.8772   -5.7338  -34.4634 C   0  0  1  0  0  0  0  0  0  0  0  0
  -23.4390   -3.1336  -24.1975 C   0  0  1  0  0  0  0  0  0  0  0  0
  -21.0567   -3.5103  -23.9976 C   0  0  2  0  0  0  0  0  0  0  0  0
  -19.8628   -4.9401  -25.8848 C   0  0  2  0  0  0  0  0  0  0  0  0
  -24.4052   -4.3112  -24.0828 C   0  0  0  0  0  0  0  0  0  0  0  0
  -20.0924   -3.9622  -22.9082 C   0  0  0  0  0  0  0  0  0  0  0  0
  -22.8162   -3.3425  -32.0913 N   0  0  0  0  0  0  0  0  0  0  0  0
  -17.6337   -4.1080  -26.4814 N   0  5  0  0  0  0  0  0  0  0  0  0
  -17.8298   -5.9542  -25.0499 N   0  0  0  0  0  0  0  0  0  0  0  0
  -22.0953   -3.7654  -26.1970 N   0  0  3  0  0  0  0  0  0  0  0  0
  -21.2352   -5.0772  -32.6639 N   0  0  0  0  0  0  0  0  0  0  0  0
  -19.3278   -2.6320  -26.3697 O   0  0  0  0  0  0  0  0  0  0  0  0
  -19.8327   -6.8331  -24.3566 O   0  0  0  0  0  0  0  0  0  0  0  0
  -15.8220   -5.2964  -25.8546 O   0  0  0  0  0  0  0  0  0  0  0  0
  -23.2323   -2.8067  -30.8781 O   0  0  0  0  0  0  0  0  0  0  0  0
  -22.3253   -3.3770  -23.3431 O   0  0  0  0  0  0  0  0  0  0  0  0
  -21.4943   -7.5344  -34.3924 O   0  0  0  0  0  0  0  0  0  0  0  0
  -19.8707   -5.9113  -35.8649 O   0  0  0  0  0  0  0  0  0  0  0  0
  -23.5195   -2.1562  -28.1359 F   0  0  0  0  0  0  0  0  0  0  0  0
  -20.2694   -5.8950  -29.8672 H   0  0  0  0  0  0  0  0  0  0  0  0
  -20.7684   -6.6346  -26.9431 H   0  0  0  0  0  0  0  0  0  0  0  0
  -19.3027   -6.0215  -27.6984 H   0  0  0  0  0  0  0  0  0  0  0  0
  -21.5842   -7.0279  -31.9222 H   0  0  0  0  0  0  0  0  0  0  0  0
  -19.9276   -6.4412  -31.6706 H   0  0  0  0  0  0  0  0  0  0  0  0
  -20.3895   -3.6780  -33.9750 H   0  0  0  0  0  0  0  0  0  0  0  0
  -21.7499   -4.6144  -34.6707 H   0  0  0  0  0  0  0  0  0  0  0  0
  -23.9787   -2.8716  -26.2832 H   0  0  0  0  0  0  0  0  0  0  0  0
  -22.7739   -1.7541  -25.6916 H   0  0  0  0  0  0  0  0  0  0  0  0
  -21.7591   -5.3387  -24.8975 H   0  0  0  0  0  0  0  0  0  0  0  0
  -19.5884   -7.7181  -33.6429 H   0  0  0  0  0  0  0  0  0  0  0  0
  -18.8266   -5.4742  -34.1572 H   0  0  0  0  0  0  0  0  0  0  0  0
  -24.0017   -2.2357  -23.7638 H   0  0  0  0  0  0  0  0  0  0  0  0
  -20.7402   -2.4981  -24.3077 H   0  0  0  0  0  0  0  0  0  0  0  0
  -23.9408   -5.2147  -24.4784 H   0  0  0  0  0  0  0  0  0  0  0  0
  -25.3141   -4.1044  -24.6479 H   0  0  0  0  0  0  0  0  0  0  0  0
  -24.6684   -4.4773  -23.0380 H   0  0  0  0  0  0  0  0  0  0  0  0
  -20.3603   -4.9612  -22.5639 H   0  0  0  0  0  0  0  0  0  0  0  0
  -20.1348   -3.2740  -22.0639 H   0  0  0  0  0  0  0  0  0  0  0  0
  -19.0741   -3.9831  -23.2967 H   0  0  0  0  0  0  0  0  0  0  0  0
  -17.3376   -6.6273  -24.4702 H   0  0  0  0  0  0  0  0  0  0  0  0
  -21.8360   -8.2500  -33.8278 H   0  0  0  0  0  0  0  0  0  0  0  0
  -19.6218   -5.0570  -36.2512 H   0  0  0  0  0  0  0  0  0  0  0  0
  1  2  2  0  0  0  0
  1  3  1  0  0  0  0
  2  5  1  0  0  0  0
  2  7  1  0  0  0  0
  3  4  2  0  0  0  0
  3 11  1  0  0  0  0
  4  6  1  0  0  0  0
  4 26  1  0  0  0  0
  5  6  2  0  0  0  0
  5 31  1  0  0  0  0
  6 35  1  0  0  0  0
  7 23  2  0  0  0  0
  7 27  1  0  0  0  0
  8 20  1  0  0  0  0
  8 24  1  0  0  0  0
  8 28  2  0  0  0  0
  9 20  1  0  0  0  0
  9 25  1  0  0  0  0
  9 29  2  0  0  0  0
 10 24  1  0  0  0  0
 10 25  1  0  0  0  0
 10 30  2  0  0  0  0
 11 20  1  0  0  0  0
 12 16  1  0  0  0  0
 12 27  1  0  0  0  0
 13 17  1  0  0  0  0
 13 27  1  0  0  0  0
 14 18  1  0  0  0  0
 14 26  1  0  0  0  0
 15 19  1  0  0  0  0
 15 20  1  0  0  0  0
 15 26  1  0  0  0  0
 16 17  1  0  0  0  0
 16 33  1  0  0  0  0
 17 34  1  0  0  0  0
 18 21  1  0  0  0  0
 18 32  1  0  0  0  0
 19 22  1  0  0  0  0
 19 32  1  0  0  0  0
 23 31  1  0  0  0  0
  1 36  1  0  0  0  0
 11 37  1  0  0  0  0
 11 38  1  0  0  0  0
 12 39  1  0  0  0  0
 12 40  1  0  0  0  0
 13 41  1  0  0  0  0
 13 42  1  0  0  0  0
 14 43  1  0  0  0  0
 14 44  1  0  0  0  0
 15 45  1  0  0  0  0
 16 46  1  0  0  0  0
 17 47  1  0  0  0  0
 18 48  1  0  0  0  0
 19 49  1  0  0  0  0
 21 50  1  0  0  0  0
 21 51  1  0  0  0  0
 21 52  1  0  0  0  0
 22 53  1  0  0  0  0
 22 54  1  0  0  0  0
 22 55  1  0  0  0  0
 25 56  1  0  0  0  0
 33 57  1  0  0  0  0
 34 58  1  0  0  0  0
M  CHG  1  24  -1
M  END
> <SMILES>
C[C@@H]1CN2[C@H]([C@H](C)O1)C1(Cc3cc4c(noc4c(c32)F)N2C[C@@H](O)[C@@H](O)C2)C(=O)NC(=O)NC1=O

> <FORMATTED_ID>
H3D-004955

> <MOLFORMULA>
C22H24FN5O7

> <Exact Mass>
489.17

> <XLogP>
-1.33

> <TPSA_NOPS>
157.8

> <s_m_source_file>
ligprep_h3d.sdf

> <i_m_source_file_index>
725

> <i_lp_mmshare_version>
55123

> <i_f3d_flags>
0

> <s_epik_input>
Tz1DMVtOSF1DKD1PKVtOSF1DKD1PKUMxMltDQEBIXTNOKFtDSDJdW0NAQEhdKFtDSDNdKU9bQ0BIXTNbQ0gzXSljNGMoW0NIMl0yKVtjSF1jNWMoYzRGKW9uYzVONltDSDJdW0NAQEhdKFtPSF0pW0NAQEhdKFtPSF0pW0NIMl02

> <s_epik_cmdline>
J2VwaWtfcHl0aG9uJywgJy1waHQnLCAnMC41JywgJy1waCcsICc3LjUnLCAnLXRuJywgJzgnLCAnLW1hJywgJzUwMCcsICctaW1hZScsICc8aW5maWxlLm1hZT4nLCAnLW9tYWUnLCAnPG91dGZpbGUubWFlPic=

> <r_lp_tautomer_probability>
1

> <r_epik_Ionization_Penalty>
0.455393

> <r_epik_Ionization_Penalty_Charging>
0.455373

> <r_epik_Ionization_Penalty_Neutral>
2.00145e-05

> <r_epik_State_Penalty>
0.458483

> <r_epik_Charging_Adjusted_Penalty>
0.913857

> <i_epik_Tot_Q>
-1

> <i_epik_Tot_abs_Q>
1

> <s_lp_Force_Field>
S-OPLS

> <r_lp_Energy>
49.6487

> <b_lp_Chiralities_Consistent>
1

> <s_lp_Variant>
ligprep_h3d.sdf:725-2

> <ROCS_ShapeQuery>
_7L13

> <ROCS_TanimotoCombo>
0.728 

> <ROCS_ShapeTanimoto>
0.614 

> <ROCS_ColorTanimoto>
0.114 

> <ROCS_RefTversky>
0.762 

> <ROCS_RefColorTversky>
0.293 

> <ROCS_RefTverskyCombo>
1.055 

> <ROCS_FitTversky>
0.760 

> <ROCS_FitColorTversky>
0.157 

> <ROCS_FitTverskyCombo>
0.917 

> <ROCS_ColorScore>
-2.769

> <ROCS_Overlap>
1265.174

> <ROCS_Rank>
710                 

$$$$
ligprep_h3d.sdf:5130_1134
  -OEChem-08212117123D

 62 67  0     0  0  0  0  0  0999 V2000
  -19.0912   -5.6008  -34.6427 C   0  0  0  0  0  0  0  0  0  0  0  0
  -20.0699   -6.5447  -34.3318 C   0  0  0  0  0  0  0  0  0  0  0  0
  -19.0496   -4.3871  -33.9563 C   0  0  0  0  0  0  0  0  0  0  0  0
  -21.0071   -6.2750  -33.3345 C   0  0  0  0  0  0  0  0  0  0  0  0
  -19.9869   -4.1175  -32.9591 C   0  0  0  0  0  0  0  0  0  0  0  0
  -23.6071   -3.9807  -27.6852 C   0  0  0  0  0  0  0  0  0  0  0  0
  -20.8943   -4.3899  -28.3215 C   0  0  0  0  0  0  0  0  0  0  0  0
  -14.7907   -4.5374  -26.0163 C   0  0  0  0  0  0  0  0  0  0  0  0
  -15.2013   -5.7757  -25.5819 C   0  0  0  0  0  0  0  0  0  0  0  0
  -22.6869   -4.3283  -26.7034 C   0  0  0  0  0  0  0  0  0  0  0  0
  -20.9656   -5.0614  -32.6481 C   0  0  0  0  0  0  0  0  0  0  0  0
  -21.3367   -4.5354  -27.0115 C   0  0  0  0  0  0  0  0  0  0  0  0
  -23.1632   -3.8442  -28.9998 C   0  0  0  0  0  0  0  0  0  0  0  0
  -21.8147   -4.0464  -29.3158 C   0  0  0  0  0  0  0  0  0  0  0  0
  -16.9266   -4.4573  -26.0351 C   0  0  0  0  0  0  0  0  0  0  0  0
  -18.3196   -4.1690  -26.1303 C   0  0  0  0  0  0  0  0  0  0  0  0
  -18.8061   -6.4222  -25.3395 C   0  0  0  0  0  0  0  0  0  0  0  0
  -17.4962   -6.7021  -25.2475 C   0  0  0  0  0  0  0  0  0  0  0  0
  -19.2453   -5.1004  -25.8005 C   0  0  0  0  0  0  0  0  0  0  0  0
  -23.1780   -3.1127  -24.5654 C   0  0  0  0  0  0  0  0  0  0  0  0
  -24.0680   -5.4609  -24.9036 C   0  0  0  0  0  0  0  0  0  0  0  0
  -21.5347   -5.0772  -24.7767 C   0  0  0  0  0  0  0  0  0  0  0  0
  -23.5136   -3.2132  -23.0821 C   0  0  0  0  0  0  0  0  0  0  0  0
  -24.3584   -5.5482  -23.4118 C   0  0  0  0  0  0  0  0  0  0  0  0
  -22.9142   -4.4881  -25.2190 C   0  0  0  0  0  0  0  0  0  0  0  0
  -24.2514   -2.1317  -30.2403 C   0  0  0  0  0  0  0  0  0  0  0  0
  -21.9737   -4.7705  -31.5754 C   0  0  0  0  0  0  0  0  0  0  0  0
  -15.8615   -3.7265  -26.2952 N   0  0  0  0  0  0  0  0  0  0  0  0
  -16.5714   -5.7255  -25.5933 N   0  0  0  0  0  0  0  0  0  0  0  0
  -20.5802   -4.8765  -25.8737 N   0  0  0  0  0  0  0  0  0  0  0  0
  -24.6350   -4.1778  -22.8894 N   0  3  0  0  0  0  0  0  0  0  0  0
  -24.0579   -3.5193  -29.9755 O   0  0  0  0  0  0  0  0  0  0  0  0
  -21.3833   -3.9120  -30.6026 O   0  0  0  0  0  0  0  0  0  0  0  0
  -18.3606   -5.8115  -35.4183 H   0  0  0  0  0  0  0  0  0  0  0  0
  -20.1017   -7.4902  -34.8653 H   0  0  0  0  0  0  0  0  0  0  0  0
  -18.2871   -3.6524  -34.1974 H   0  0  0  0  0  0  0  0  0  0  0  0
  -21.7662   -7.0164  -33.0991 H   0  0  0  0  0  0  0  0  0  0  0  0
  -19.9469   -3.1692  -32.4297 H   0  0  0  0  0  0  0  0  0  0  0  0
  -24.6531   -3.8284  -27.4392 H   0  0  0  0  0  0  0  0  0  0  0  0
  -19.8505   -4.5321  -28.5837 H   0  0  0  0  0  0  0  0  0  0  0  0
  -13.7761   -4.1891  -26.1425 H   0  0  0  0  0  0  0  0  0  0  0  0
  -14.6564   -6.6584  -25.2767 H   0  0  0  0  0  0  0  0  0  0  0  0
  -18.6181   -3.1831  -26.4736 H   0  0  0  0  0  0  0  0  0  0  0  0
  -19.5499   -7.1665  -25.0760 H   0  0  0  0  0  0  0  0  0  0  0  0
  -17.1228   -7.6625  -24.9133 H   0  0  0  0  0  0  0  0  0  0  0  0
  -24.0121   -2.6071  -25.0756 H   0  0  0  0  0  0  0  0  0  0  0  0
  -22.3097   -2.4502  -24.6977 H   0  0  0  0  0  0  0  0  0  0  0  0
  -23.8459   -6.4630  -25.2857 H   0  0  0  0  0  0  0  0  0  0  0  0
  -24.9810   -5.1340  -25.4153 H   0  0  0  0  0  0  0  0  0  0  0  0
  -21.1529   -4.5544  -23.8896 H   0  0  0  0  0  0  0  0  0  0  0  0
  -21.6024   -6.1401  -24.5184 H   0  0  0  0  0  0  0  0  0  0  0  0
  -22.6672   -3.5681  -22.4822 H   0  0  0  0  0  0  0  0  0  0  0  0
  -23.8509   -2.2494  -22.6844 H   0  0  0  0  0  0  0  0  0  0  0  0
  -25.2494   -6.1486  -23.2148 H   0  0  0  0  0  0  0  0  0  0  0  0
  -23.5206   -5.9517  -22.8391 H   0  0  0  0  0  0  0  0  0  0  0  0
  -24.9885   -2.0115  -31.0381 H   0  0  0  0  0  0  0  0  0  0  0  0
  -23.3012   -1.6804  -30.5367 H   0  0  0  0  0  0  0  0  0  0  0  0
  -24.6168   -1.6443  -29.3333 H   0  0  0  0  0  0  0  0  0  0  0  0
  -22.8600   -4.2809  -31.9931 H   0  0  0  0  0  0  0  0  0  0  0  0
  -22.2989   -5.6959  -31.0878 H   0  0  0  0  0  0  0  0  0  0  0  0
  -24.8562   -4.2400  -21.8863 H   0  0  0  0  0  0  0  0  0  0  0  0
  -25.4857   -3.8077  -23.3366 H   0  0  0  0  0  0  0  0  0  0  0  0
  1  2  2  0  0  0  0
  1  3  1  0  0  0  0
  2  4  1  0  0  0  0
  3  5  2  0  0  0  0
  4 11  2  0  0  0  0
  5 11  1  0  0  0  0
  6 10  1  0  0  0  0
  6 13  2  0  0  0  0
  7 12  1  0  0  0  0
  7 14  2  0  0  0  0
  8  9  2  0  0  0  0
  8 28  1  0  0  0  0
  9 29  1  0  0  0  0
 10 12  2  0  0  0  0
 10 25  1  0  0  0  0
 11 27  1  0  0  0  0
 12 30  1  0  0  0  0
 13 14  1  0  0  0  0
 13 32  1  0  0  0  0
 14 33  1  0  0  0  0
 15 16  1  0  0  0  0
 15 28  2  0  0  0  0
 15 29  1  0  0  0  0
 16 19  2  0  0  0  0
 17 18  2  0  0  0  0
 17 19  1  0  0  0  0
 18 29  1  0  0  0  0
 19 30  1  0  0  0  0
 20 23  1  0  0  0  0
 20 25  1  0  0  0  0
 21 24  1  0  0  0  0
 21 25  1  0  0  0  0
 22 25  1  0  0  0  0
 22 30  1  0  0  0  0
 23 31  1  0  0  0  0
 24 31  1  0  0  0  0
 26 32  1  0  0  0  0
 27 33  1  0  0  0  0
  1 34  1  0  0  0  0
  2 35  1  0  0  0  0
  3 36  1  0  0  0  0
  4 37  1  0  0  0  0
  5 38  1  0  0  0  0
  6 39  1  0  0  0  0
  7 40  1  0  0  0  0
  8 41  1  0  0  0  0
  9 42  1  0  0  0  0
 16 43  1  0  0  0  0
 17 44  1  0  0  0  0
 18 45  1  0  0  0  0
 20 46  1  0  0  0  0
 20 47  1  0  0  0  0
 21 48  1  0  0  0  0
 21 49  1  0  0  0  0
 22 50  1  0  0  0  0
 22 51  1  0  0  0  0
 23 52  1  0  0  0  0
 23 53  1  0  0  0  0
 24 54  1  0  0  0  0
 24 55  1  0  0  0  0
 26 56  1  0  0  0  0
 26 57  1  0  0  0  0
 26 58  1  0  0  0  0
 27 59  1  0  0  0  0
 27 60  1  0  0  0  0
 31 61  1  0  0  0  0
 31 62  1  0  0  0  0
M  CHG  1  31   1
M  END
> <SMILES>
COc1cc2c(cc1OCc1ccccc1)N(CC12CCNCC1)c1ccn2ccnc2c1

> <FORMATTED_ID>
H3D-013382

> <MOLFORMULA>
C27H28N4O2

> <Exact Mass>
440.22

> <XLogP>
5.76

> <TPSA_NOPS>
51

> <s_m_source_file>
ligprep_h3d.sdf

> <i_m_source_file_index>
5130

> <i_lp_mmshare_version>
55123

> <i_f3d_flags>
0

> <s_epik_input>
W2NIXTFbY0hdW2NIXVtjSF1bY0hdYzFbQ0gyXU9jKGMoW2NIXTIpT1tDSDNdKVtjSF1jKGMyQzM0W0NIMl1bQ0gyXVtOSF1bQ0gyXVtDSDJdNClOKFtDSDJdMyljKFtjSF1bY0hdNSlbY0hdYyhuNTYpbltjSF1bY0hdNg==

> <s_epik_cmdline>
J2VwaWtfcHl0aG9uJywgJy1waHQnLCAnMC41JywgJy1waCcsICc3LjUnLCAnLXRuJywgJzgnLCAnLW1hJywgJzUwMCcsICctaW1hZScsICc8aW5maWxlLm1hZT4nLCAnLW9tYWUnLCAnPG91dGZpbGUubWFlPic=

> <r_lp_tautomer_probability>
1

> <r_epik_Ionization_Penalty>
0.425285

> <r_epik_Ionization_Penalty_Charging>
0.425285

> <r_epik_Ionization_Penalty_Neutral>
6.58568e-10

> <r_epik_State_Penalty>
0.423923

> <r_epik_Charging_Adjusted_Penalty>
0.849208

> <i_epik_Tot_Q>
1

> <i_epik_Tot_abs_Q>
1

> <s_lp_Force_Field>
S-OPLS

> <r_lp_Energy>
72.5918

> <b_lp_Chiralities_Consistent>
1

> <s_lp_Variant>
ligprep_h3d.sdf:5130-2

> <ROCS_ShapeQuery>
_7L13

> <ROCS_TanimotoCombo>
0.750 

> <ROCS_ShapeTanimoto>
0.648 

> <ROCS_ColorTanimoto>
0.102 

> <ROCS_RefTversky>
0.762 

> <ROCS_RefColorTversky>
0.204 

> <ROCS_RefTverskyCombo>
0.966 

> <ROCS_FitTversky>
0.812 

> <ROCS_FitColorTversky>
0.170 

> <ROCS_FitTverskyCombo>
0.982 

> <ROCS_ColorScore>
-1.855

> <ROCS_Overlap>
1260.592

> <ROCS_Rank>
711                 

$$$$
ligprep_h3d.sdf:4370_1900
  -OEChem-08212117123D

 59 63  0     1  0  0  0  0  0999 V2000
  -21.1886   -7.9354  -34.8582 C   0  0  0  0  0  0  0  0  0  0  0  0
  -20.7348   -8.7750  -35.8753 C   0  0  0  0  0  0  0  0  0  0  0  0
  -20.5642   -4.7556  -25.3887 C   0  0  0  0  0  0  0  0  0  0  0  0
  -20.1800   -6.0426  -35.9704 C   0  0  0  0  0  0  0  0  0  0  0  0
  -22.4053   -3.5790  -26.3939 C   0  0  0  0  0  0  0  0  0  0  0  0
  -21.5931   -4.5984  -30.4512 C   0  0  0  0  0  0  0  0  0  0  0  0
  -19.9927   -4.8281  -26.6488 C   0  0  0  0  0  0  0  0  0  0  0  0
  -23.0988   -3.0755  -32.2854 C   0  0  0  0  0  0  0  0  0  0  0  0
  -20.9112   -6.5691  -34.9057 C   0  0  0  0  0  0  0  0  0  0  0  0
  -21.7936   -4.1175  -25.2673 C   0  0  0  0  0  0  0  0  0  0  0  0
  -19.7261   -6.8822  -36.9876 C   0  0  0  0  0  0  0  0  0  0  0  0
  -22.3495   -4.1637  -32.7338 C   0  0  0  0  0  0  0  0  0  0  0  0
  -21.6163   -4.8971  -31.8065 C   0  0  0  0  0  0  0  0  0  0  0  0
  -20.0035   -8.2484  -36.9400 C   0  0  0  0  0  0  0  0  0  0  0  0
  -21.7513   -3.7039  -27.6090 C   0  0  0  0  0  0  0  0  0  0  0  0
  -22.3691   -3.5008  -30.1071 C   0  0  0  0  0  0  0  0  0  0  0  0
  -21.3811   -5.7009  -33.8535 C   0  0  0  0  0  0  0  0  0  0  0  0
  -22.4428   -4.0139  -23.9540 C   0  0  0  0  0  0  0  0  0  0  0  0
  -24.4579   -5.3028  -24.8362 C   0  0  0  0  0  0  0  0  0  0  0  0
  -24.3536   -4.5743  -22.4871 C   0  0  0  0  0  0  0  0  0  0  0  0
  -25.9014   -4.7954  -24.8771 C   0  0  1  0  0  0  0  0  0  0  0  0
  -25.7950   -4.0843  -22.6190 C   0  0  2  0  0  0  0  0  0  0  0  0
  -26.7457   -5.6222  -25.8359 C   0  0  0  0  0  0  0  0  0  0  0  0
  -26.5338   -4.1878  -21.2928 C   0  0  0  0  0  0  0  0  0  0  0  0
  -18.9450   -6.3163  -38.1254 C   0  0  0  0  0  0  0  0  0  0  0  0
  -20.5566   -4.3169  -27.7661 N   0  0  0  0  0  0  0  0  0  0  0  0
  -23.1017   -2.7521  -30.9683 N   0  0  0  0  0  0  0  0  0  0  0  0
  -22.1919   -4.6767  -33.9999 N   0  0  0  0  0  0  0  0  0  0  0  0
  -21.0065   -5.8744  -32.5499 N   0  0  0  0  0  0  0  0  0  0  0  0
  -23.7030   -4.5930  -23.7963 N   0  0  0  0  0  0  0  0  0  0  0  0
  -22.3867   -3.1496  -28.7479 N   0  0  0  0  0  0  0  0  0  0  0  0
  -21.8132   -3.4198  -23.0802 O   0  0  0  0  0  0  0  0  0  0  0  0
  -26.4931   -4.8934  -23.5750 O   0  0  0  0  0  0  0  0  0  0  0  0
  -19.5697   -9.0634  -37.9117 F   0  0  0  0  0  0  0  0  0  0  0  0
  -18.7515   -4.9669  -38.0389 F   0  0  0  0  0  0  0  0  0  0  0  0
  -17.6931   -6.8485  -38.2472 F   0  0  0  0  0  0  0  0  0  0  0  0
  -19.5497   -6.5229  -39.3314 F   0  0  0  0  0  0  0  0  0  0  0  0
  -21.7575   -8.3609  -34.0348 H   0  0  0  0  0  0  0  0  0  0  0  0
  -20.9508   -9.8388  -35.8398 H   0  0  0  0  0  0  0  0  0  0  0  0
  -20.0603   -5.1868  -24.5303 H   0  0  0  0  0  0  0  0  0  0  0  0
  -19.9601   -4.9776  -36.0137 H   0  0  0  0  0  0  0  0  0  0  0  0
  -23.3653   -3.0763  -26.3192 H   0  0  0  0  0  0  0  0  0  0  0  0
  -21.0182   -5.1749  -29.7376 H   0  0  0  0  0  0  0  0  0  0  0  0
  -19.0348   -5.3156  -26.7970 H   0  0  0  0  0  0  0  0  0  0  0  0
  -23.6952   -2.4519  -32.9394 H   0  0  0  0  0  0  0  0  0  0  0  0
  -24.4300   -6.3643  -24.5604 H   0  0  0  0  0  0  0  0  0  0  0  0
  -23.9898   -5.1987  -25.8184 H   0  0  0  0  0  0  0  0  0  0  0  0
  -23.7928   -3.9495  -21.7844 H   0  0  0  0  0  0  0  0  0  0  0  0
  -24.3272   -5.6063  -22.1161 H   0  0  0  0  0  0  0  0  0  0  0  0
  -25.9282   -3.7459  -25.2016 H   0  0  0  0  0  0  0  0  0  0  0  0
  -25.8169   -3.0375  -22.9534 H   0  0  0  0  0  0  0  0  0  0  0  0
  -26.7354   -6.6703  -25.5349 H   0  0  0  0  0  0  0  0  0  0  0  0
  -26.3487   -5.5421  -26.8483 H   0  0  0  0  0  0  0  0  0  0  0  0
  -27.7757   -5.2640  -25.8314 H   0  0  0  0  0  0  0  0  0  0  0  0
  -26.5258   -5.2195  -20.9396 H   0  0  0  0  0  0  0  0  0  0  0  0
  -27.5682   -3.8649  -21.4146 H   0  0  0  0  0  0  0  0  0  0  0  0
  -26.0524   -3.5556  -20.5460 H   0  0  0  0  0  0  0  0  0  0  0  0
  -20.3898   -6.5927  -32.1934 H   0  0  0  0  0  0  0  0  0  0  0  0
  -22.9626   -2.3445  -28.5324 H   0  0  0  0  0  0  0  0  0  0  0  0
  1  2  1  0  0  0  0
  1  9  2  0  0  0  0
  2 14  2  0  0  0  0
  3  7  1  0  0  0  0
  3 10  2  0  0  0  0
  4  9  1  0  0  0  0
  4 11  2  0  0  0  0
  5 10  1  0  0  0  0
  5 15  2  0  0  0  0
  6 13  1  0  0  0  0
  6 16  2  0  0  0  0
  7 26  2  0  0  0  0
  8 12  1  0  0  0  0
  8 27  2  0  0  0  0
  9 17  1  0  0  0  0
 10 18  1  0  0  0  0
 11 14  1  0  0  0  0
 11 25  1  0  0  0  0
 12 13  2  0  0  0  0
 12 28  1  0  0  0  0
 13 29  1  0  0  0  0
 14 34  1  0  0  0  0
 15 26  1  0  0  0  0
 15 31  1  0  0  0  0
 16 27  1  0  0  0  0
 16 31  1  0  0  0  0
 17 28  2  0  0  0  0
 17 29  1  0  0  0  0
 18 30  1  0  0  0  0
 18 32  2  0  0  0  0
 19 21  1  0  0  0  0
 19 30  1  0  0  0  0
 20 22  1  0  0  0  0
 20 30  1  0  0  0  0
 21 23  1  0  0  0  0
 21 33  1  0  0  0  0
 22 24  1  0  0  0  0
 22 33  1  0  0  0  0
 25 35  1  0  0  0  0
 25 36  1  0  0  0  0
 25 37  1  0  0  0  0
  1 38  1  0  0  0  0
  2 39  1  0  0  0  0
  3 40  1  0  0  0  0
  4 41  1  0  0  0  0
  5 42  1  0  0  0  0
  6 43  1  0  0  0  0
  7 44  1  0  0  0  0
  8 45  1  0  0  0  0
 19 46  1  0  0  0  0
 19 47  1  0  0  0  0
 20 48  1  0  0  0  0
 20 49  1  0  0  0  0
 21 50  1  0  0  0  0
 22 51  1  0  0  0  0
 23 52  1  0  0  0  0
 23 53  1  0  0  0  0
 23 54  1  0  0  0  0
 24 55  1  0  0  0  0
 24 56  1  0  0  0  0
 24 57  1  0  0  0  0
 29 58  1  0  0  0  0
 31 59  1  0  0  0  0
M  END
> <SMILES>
C[C@@H]1CN(C[C@H](C)O1)C(=O)c1ccnc(c1)Nc1cc2[nH]c(nc2cn1)-c1ccc(c(c1)C(F)(F)F)F

> <FORMATTED_ID>
H3D-003913

> <MOLFORMULA>
C25H22F4N6O2

> <Exact Mass>
514.17

> <XLogP>
5.23

> <TPSA_NOPS>
96

> <s_m_source_file>
ligprep_h3d.sdf

> <i_m_source_file_index>
4370

> <i_lp_mmshare_version>
55123

> <i_f3d_flags>
0

> <s_epik_input>
W0NIM11bQ0BASF0xW0NIMl1OKFtDSDJdW0NAQEhdKE8xKVtDSDNdKUMoPU8pYzJbY0hdW2NIXW5jKFtjSF0yKVtOSF1jKFtjSF0zKVtuSF1bY0hdYyhjMzQpbmMobjQpLWM1W2NIXVtjSF1jKEYpYyhbY0hdNSlDKEYpKEYpRg==

> <s_epik_cmdline>
J2VwaWtfcHl0aG9uJywgJy1waHQnLCAnMC41JywgJy1waCcsICc3LjUnLCAnLXRuJywgJzgnLCAnLW1hJywgJzUwMCcsICctaW1hZScsICc8aW5maWxlLm1hZT4nLCAnLW9tYWUnLCAnPG91dGZpbGUubWFlPic=

> <r_lp_tautomer_probability>
1

> <r_epik_Ionization_Penalty>
0.0951133

> <r_epik_Ionization_Penalty_Charging>
0.0947018

> <r_epik_Ionization_Penalty_Neutral>
0.000411542

> <r_epik_State_Penalty>
-0

> <r_epik_Charging_Adjusted_Penalty>
0.0947018

> <i_epik_Tot_Q>
0

> <i_epik_Tot_abs_Q>
0

> <s_lp_Force_Field>
S-OPLS

> <r_lp_Energy>
48.6814

> <b_lp_Chiralities_Consistent>
1

> <s_lp_Variant>
ligprep_h3d.sdf:4370-1

> <ROCS_ShapeQuery>
_7L13

> <ROCS_TanimotoCombo>
0.793 

> <ROCS_ShapeTanimoto>
0.595 

> <ROCS_ColorTanimoto>
0.198 

> <ROCS_RefTversky>
0.762 

> <ROCS_RefColorTversky>
0.380 

> <ROCS_RefTverskyCombo>
1.142 

> <ROCS_FitTversky>
0.731 

> <ROCS_FitColorTversky>
0.293 

> <ROCS_FitTverskyCombo>
1.024 

> <ROCS_ColorScore>
-3.480

> <ROCS_Overlap>
1267.779

> <ROCS_Rank>
712                 

$$$$
ligprep_h3d.sdf:4498_1149
  -OEChem-08212117123D

 62 67  0     0  0  0  0  0  0999 V2000
  -23.6149   -4.7286  -25.9068 C   0  0  0  0  0  0  0  0  0  0  0  0
  -17.7517   -3.9311  -26.8722 C   0  0  0  0  0  0  0  0  0  0  0  0
  -18.3175   -5.6685  -25.2917 C   0  0  0  0  0  0  0  0  0  0  0  0
  -16.0137   -4.9994  -25.5779 C   0  0  0  0  0  0  0  0  0  0  0  0
  -24.5441   -4.4067  -26.8858 C   0  0  0  0  0  0  0  0  0  0  0  0
  -18.7082   -4.7333  -26.2500 C   0  0  0  0  0  0  0  0  0  0  0  0
  -21.9414   -4.2401  -27.6192 C   0  0  0  0  0  0  0  0  0  0  0  0
  -22.2972   -4.6279  -26.3315 C   0  0  0  0  0  0  0  0  0  0  0  0
  -16.4044   -4.0642  -26.5362 C   0  0  0  0  0  0  0  0  0  0  0  0
  -16.9703   -5.8016  -24.9557 C   0  0  0  0  0  0  0  0  0  0  0  0
  -22.9530   -3.9370  -28.5309 C   0  0  0  0  0  0  0  0  0  0  0  0
  -20.1018   -4.5956  -26.5974 C   0  0  0  0  0  0  0  0  0  0  0  0
  -21.4966   -5.6929  -32.4296 C   0  0  0  0  0  0  0  0  0  0  0  0
  -21.0948   -3.3370  -31.7704 C   0  0  0  0  0  0  0  0  0  0  0  0
  -23.4805   -4.2295  -32.0074 C   0  0  0  0  0  0  0  0  0  0  0  0
  -20.2943   -5.9149  -35.8492 C   0  0  0  0  0  0  0  0  0  0  0  0
  -20.1787   -8.1451  -34.6823 C   0  0  0  0  0  0  0  0  0  0  0  0
  -21.2319   -3.4499  -30.2462 C   0  0  0  0  0  0  0  0  0  0  0  0
  -23.6480   -3.2560  -30.8417 C   0  0  0  0  0  0  0  0  0  0  0  0
  -20.0957   -5.2245  -34.5003 C   0  0  0  0  0  0  0  0  0  0  0  0
  -19.9789   -7.4125  -33.3573 C   0  0  0  0  0  0  0  0  0  0  0  0
  -18.8442   -7.9873  -37.8713 C   0  0  0  0  0  0  0  0  0  0  0  0
  -17.7534   -8.0437  -36.8384 C   0  0  0  0  0  0  0  0  0  0  0  0
  -22.0334   -4.2869  -32.5222 C   0  0  0  0  0  0  0  0  0  0  0  0
  -19.6726   -7.3167  -35.8691 C   0  0  0  0  0  0  0  0  0  0  0  0
  -24.2528   -4.0235  -28.1536 N   0  0  0  0  0  0  0  0  0  0  0  0
  -20.5743   -4.2256  -27.7668 N   0  0  0  0  0  0  0  0  0  0  0  0
  -21.1011   -4.8492  -25.6991 N   0  0  0  0  0  0  0  0  0  0  0  0
  -22.6360   -3.5459  -29.8286 N   0  0  0  0  0  0  0  0  0  0  0  0
  -20.5768   -6.0763  -33.4051 N   0  0  0  0  0  0  0  0  0  0  0  0
  -21.8859   -6.4276  -31.5182 O   0  0  0  0  0  0  0  0  0  0  0  0
  -20.0368   -7.9842  -37.0885 O   0  0  0  0  0  0  0  0  0  0  0  0
  -18.2405   -7.1951  -35.8004 O   0  0  0  0  0  0  0  0  0  0  0  0
  -15.4861   -3.2938  -27.1338 F   0  0  0  0  0  0  0  0  0  0  0  0
  -16.5954   -6.6991  -24.0349 F   0  0  0  0  0  0  0  0  0  0  0  0
  -23.8932   -5.0303  -24.9063 H   0  0  0  0  0  0  0  0  0  0  0  0
  -18.0399   -3.1974  -27.6213 H   0  0  0  0  0  0  0  0  0  0  0  0
  -19.0513   -6.3008  -24.7972 H   0  0  0  0  0  0  0  0  0  0  0  0
  -14.9650   -5.1027  -25.3165 H   0  0  0  0  0  0  0  0  0  0  0  0
  -25.6063   -4.4514  -26.6619 H   0  0  0  0  0  0  0  0  0  0  0  0
  -21.3303   -2.3112  -32.0667 H   0  0  0  0  0  0  0  0  0  0  0  0
  -20.0560   -3.5240  -32.0505 H   0  0  0  0  0  0  0  0  0  0  0  0
  -23.8101   -5.2248  -31.6966 H   0  0  0  0  0  0  0  0  0  0  0  0
  -24.1303   -3.9167  -32.8309 H   0  0  0  0  0  0  0  0  0  0  0  0
  -21.3650   -5.9773  -36.0820 H   0  0  0  0  0  0  0  0  0  0  0  0
  -19.8429   -5.2965  -36.6349 H   0  0  0  0  0  0  0  0  0  0  0  0
  -19.6481   -9.1043  -34.6429 H   0  0  0  0  0  0  0  0  0  0  0  0
  -21.2408   -8.3857  -34.8194 H   0  0  0  0  0  0  0  0  0  0  0  0
  -20.6765   -4.3309  -29.8864 H   0  0  0  0  0  0  0  0  0  0  0  0
  -20.7581   -2.5670  -29.7884 H   0  0  0  0  0  0  0  0  0  0  0  0
  -23.5275   -2.2386  -31.2213 H   0  0  0  0  0  0  0  0  0  0  0  0
  -24.6489   -3.3388  -30.4135 H   0  0  0  0  0  0  0  0  0  0  0  0
  -19.0318   -5.0327  -34.3171 H   0  0  0  0  0  0  0  0  0  0  0  0
  -20.5969   -4.2551  -34.5154 H   0  0  0  0  0  0  0  0  0  0  0  0
  -20.4092   -8.0036  -32.5426 H   0  0  0  0  0  0  0  0  0  0  0  0
  -18.9120   -7.2867  -33.1390 H   0  0  0  0  0  0  0  0  0  0  0  0
  -18.8098   -7.0544  -38.4443 H   0  0  0  0  0  0  0  0  0  0  0  0
  -18.8347   -8.8356  -38.5599 H   0  0  0  0  0  0  0  0  0  0  0  0
  -17.6378   -9.0527  -36.4280 H   0  0  0  0  0  0  0  0  0  0  0  0
  -16.7875   -7.6900  -37.2068 H   0  0  0  0  0  0  0  0  0  0  0  0
  -22.0195   -4.0392  -33.5841 H   0  0  0  0  0  0  0  0  0  0  0  0
  -20.9833   -5.1468  -24.7394 H   0  0  0  0  0  0  0  0  0  0  0  0
  1  5  1  0  0  0  0
  1  8  2  0  0  0  0
  2  6  1  0  0  0  0
  2  9  2  0  0  0  0
  3  6  2  0  0  0  0
  3 10  1  0  0  0  0
  4  9  1  0  0  0  0
  4 10  2  0  0  0  0
  5 26  2  0  0  0  0
  6 12  1  0  0  0  0
  7  8  1  0  0  0  0
  7 11  2  0  0  0  0
  7 27  1  0  0  0  0
  8 28  1  0  0  0  0
  9 34  1  0  0  0  0
 10 35  1  0  0  0  0
 11 26  1  0  0  0  0
 11 29  1  0  0  0  0
 12 27  2  0  0  0  0
 12 28  1  0  0  0  0
 13 24  1  0  0  0  0
 13 30  1  0  0  0  0
 13 31  2  0  0  0  0
 14 18  1  0  0  0  0
 14 24  1  0  0  0  0
 15 19  1  0  0  0  0
 15 24  1  0  0  0  0
 16 20  1  0  0  0  0
 16 25  1  0  0  0  0
 17 21  1  0  0  0  0
 17 25  1  0  0  0  0
 18 29  1  0  0  0  0
 19 29  1  0  0  0  0
 20 30  1  0  0  0  0
 21 30  1  0  0  0  0
 22 23  1  0  0  0  0
 22 32  1  0  0  0  0
 23 33  1  0  0  0  0
 25 32  1  0  0  0  0
 25 33  1  0  0  0  0
  1 36  1  0  0  0  0
  2 37  1  0  0  0  0
  3 38  1  0  0  0  0
  4 39  1  0  0  0  0
  5 40  1  0  0  0  0
 14 41  1  0  0  0  0
 14 42  1  0  0  0  0
 15 43  1  0  0  0  0
 15 44  1  0  0  0  0
 16 45  1  0  0  0  0
 16 46  1  0  0  0  0
 17 47  1  0  0  0  0
 17 48  1  0  0  0  0
 18 49  1  0  0  0  0
 18 50  1  0  0  0  0
 19 51  1  0  0  0  0
 19 52  1  0  0  0  0
 20 53  1  0  0  0  0
 20 54  1  0  0  0  0
 21 55  1  0  0  0  0
 21 56  1  0  0  0  0
 22 57  1  0  0  0  0
 22 58  1  0  0  0  0
 23 59  1  0  0  0  0
 23 60  1  0  0  0  0
 24 61  1  0  0  0  0
 28 62  1  0  0  0  0
M  END
> <SMILES>
Fc1cc(cc(c1)-c1nc2c(nccc2[nH]1)N1CCC(CC1)C(=O)N1CCC2(CC1)OCCO2)F

> <FORMATTED_ID>
H3D-004322

> <MOLFORMULA>
C25H27F2N5O3

> <Exact Mass>
483.21

> <XLogP>
4.36

> <TPSA_NOPS>
83.6

> <s_m_source_file>
ligprep_h3d.sdf

> <i_m_source_file_index>
4498

> <i_lp_mmshare_version>
55123

> <i_f3d_flags>
0

> <s_epik_input>
RmMxW2NIXWMoRilbY0hdYyhbY0hdMSktYyhuMilbbkhdYyhjMjMpW2NIXVtjSF1uYzNONFtDSDJdW0NIMl1bQ0hdKFtDSDJdW0NIMl00KUMoPU8pTihbQ0gyXVtDSDJdNSlbQ0gyXVtDSDJdQzU2T1tDSDJdW0NIMl1PNg==

> <s_epik_cmdline>
J2VwaWtfcHl0aG9uJywgJy1waHQnLCAnMC41JywgJy1waCcsICc3LjUnLCAnLXRuJywgJzgnLCAnLW1hJywgJzUwMCcsICctaW1hZScsICc8aW5maWxlLm1hZT4nLCAnLW9tYWUnLCAnPG91dGZpbGUubWFlPic=

> <r_lp_tautomer_probability>
0.742559

> <r_epik_Ionization_Penalty>
0.166673

> <r_epik_Ionization_Penalty_Charging>
0.166141

> <r_epik_Ionization_Penalty_Neutral>
0.000532157

> <r_epik_State_Penalty>
0.155148

> <r_epik_Charging_Adjusted_Penalty>
0.321289

> <i_epik_Tot_Q>
0

> <i_epik_Tot_abs_Q>
0

> <s_lp_Force_Field>
S-OPLS

> <r_lp_Energy>
54.6367

> <b_lp_Chiralities_Consistent>
1

> <s_lp_Variant>
ligprep_h3d.sdf:4498-1

> <ROCS_ShapeQuery>
_7L13

> <ROCS_TanimotoCombo>
0.728 

> <ROCS_ShapeTanimoto>
0.621 

> <ROCS_ColorTanimoto>
0.107 

> <ROCS_RefTversky>
0.762 

> <ROCS_RefColorTversky>
0.223 

> <ROCS_RefTverskyCombo>
0.984 

> <ROCS_FitTversky>
0.770 

> <ROCS_FitColorTversky>
0.171 

> <ROCS_FitTverskyCombo>
0.942 

> <ROCS_ColorScore>
-2.038

> <ROCS_Overlap>
1264.031

> <ROCS_Rank>
713                 

$$$$
ligprep_h3d.sdf:2921_1703
  -OEChem-08212117123D

 66 70  0     0  0  0  0  0  0999 V2000
  -19.1297   -3.0762  -25.3430 C   0  0  0  0  0  0  0  0  0  0  0  0
  -20.5007   -4.9458  -26.0229 C   0  0  0  0  0  0  0  0  0  0  0  0
  -18.0571   -3.9413  -25.1269 C   0  0  0  0  0  0  0  0  0  0  0  0
  -19.4281   -5.8109  -25.8068 C   0  0  0  0  0  0  0  0  0  0  0  0
  -20.0955   -7.6354  -35.1734 C   0  0  0  0  0  0  0  0  0  0  0  0
  -20.0297   -6.3256  -35.6485 C   0  0  0  0  0  0  0  0  0  0  0  0
  -20.1793   -6.8086  -32.9049 C   0  0  0  0  0  0  0  0  0  0  0  0
  -25.5395   -5.1512  -24.9593 C   0  0  0  0  0  0  0  0  0  0  0  0
  -23.2759   -3.9271  -23.7485 C   0  0  0  0  0  0  0  0  0  0  0  0
  -20.3515   -3.5784  -25.7909 C   0  0  0  0  0  0  0  0  0  0  0  0
  -18.2063   -5.3086  -25.3589 C   0  0  0  0  0  0  0  0  0  0  0  0
  -20.1704   -7.8769  -33.8016 C   0  0  0  0  0  0  0  0  0  0  0  0
  -20.1135   -5.4987  -33.3799 C   0  0  0  0  0  0  0  0  0  0  0  0
  -24.5771   -4.4986  -25.7481 C   0  0  0  0  0  0  0  0  0  0  0  0
  -23.4792   -3.9082  -25.1287 C   0  0  0  0  0  0  0  0  0  0  0  0
  -20.0387   -5.2573  -34.7517 C   0  0  0  0  0  0  0  0  0  0  0  0
  -25.3561   -5.1826  -23.5711 C   0  0  0  0  0  0  0  0  0  0  0  0
  -24.2437   -4.5807  -22.9785 C   0  0  0  0  0  0  0  0  0  0  0  0
  -23.4152   -3.6480  -27.3248 C   0  0  0  0  0  0  0  0  0  0  0  0
  -23.2648   -4.8956  -30.2796 C   0  0  0  0  0  0  0  0  0  0  0  0
  -23.0479   -2.4441  -30.8485 C   0  0  0  0  0  0  0  0  0  0  0  0
  -21.8343   -5.1238  -30.7544 C   0  0  0  0  0  0  0  0  0  0  0  0
  -21.6156   -2.6885  -31.3080 C   0  0  0  0  0  0  0  0  0  0  0  0
  -23.5141   -3.4616  -29.8055 C   0  0  0  0  0  0  0  0  0  0  0  0
  -20.2421   -9.2775  -33.2945 C   0  0  0  0  0  0  0  0  0  0  0  0
  -21.5091   -2.6458  -26.0247 C   0  0  0  0  0  0  0  0  0  0  0  0
  -20.1255   -4.3616  -32.4013 C   0  0  0  0  0  0  0  0  0  0  0  0
  -17.0584   -6.2328  -25.1292 C   0  0  0  0  0  0  0  0  0  0  0  0
  -24.5202   -4.3269  -27.1122 N   0  0  0  0  0  0  0  0  0  0  0  0
  -22.7531   -3.3719  -26.1610 N   0  0  0  0  0  0  0  0  0  0  0  0
  -22.8887   -3.2147  -28.5264 N   0  0  0  0  0  0  0  0  0  0  0  0
  -21.4855   -4.1054  -31.8122 N   0  3  0  0  0  0  0  0  0  0  0  0
  -19.9721   -3.9843  -35.2330 O   0  0  0  0  0  0  0  0  0  0  0  0
  -26.2621   -5.8009  -22.8008 F   0  0  0  0  0  0  0  0  0  0  0  0
  -24.0995   -4.6304  -21.6466 F   0  0  0  0  0  0  0  0  0  0  0  0
  -15.9272   -5.6032  -24.6935 F   0  0  0  0  0  0  0  0  0  0  0  0
  -17.3112   -7.1970  -24.1953 F   0  0  0  0  0  0  0  0  0  0  0  0
  -16.6912   -6.9048  -26.2590 F   0  0  0  0  0  0  0  0  0  0  0  0
  -19.0045   -2.0123  -25.1594 H   0  0  0  0  0  0  0  0  0  0  0  0
  -21.4488   -5.3453  -26.3733 H   0  0  0  0  0  0  0  0  0  0  0  0
  -17.1085   -3.5408  -24.7795 H   0  0  0  0  0  0  0  0  0  0  0  0
  -19.5526   -6.8749  -25.9900 H   0  0  0  0  0  0  0  0  0  0  0  0
  -20.0887   -8.4620  -35.8791 H   0  0  0  0  0  0  0  0  0  0  0  0
  -19.9735   -6.1451  -36.7186 H   0  0  0  0  0  0  0  0  0  0  0  0
  -20.2380   -6.9979  -31.8356 H   0  0  0  0  0  0  0  0  0  0  0  0
  -26.4071   -5.6220  -25.4101 H   0  0  0  0  0  0  0  0  0  0  0  0
  -22.4131   -3.4604  -23.2870 H   0  0  0  0  0  0  0  0  0  0  0  0
  -23.9520   -5.1178  -31.1067 H   0  0  0  0  0  0  0  0  0  0  0  0
  -23.5085   -5.6097  -29.4835 H   0  0  0  0  0  0  0  0  0  0  0  0
  -23.1414   -1.4240  -30.4564 H   0  0  0  0  0  0  0  0  0  0  0  0
  -23.7152   -2.4971  -31.7189 H   0  0  0  0  0  0  0  0  0  0  0  0
  -21.1076   -5.0228  -29.9408 H   0  0  0  0  0  0  0  0  0  0  0  0
  -21.7355   -6.1155  -31.2082 H   0  0  0  0  0  0  0  0  0  0  0  0
  -21.3620   -2.0207  -32.1381 H   0  0  0  0  0  0  0  0  0  0  0  0
  -20.8904   -2.5528  -30.4982 H   0  0  0  0  0  0  0  0  0  0  0  0
  -24.6109   -3.3305  -29.6632 H   0  0  0  0  0  0  0  0  0  0  0  0
  -19.2341   -9.6708  -33.1146 H   0  0  0  0  0  0  0  0  0  0  0  0
  -20.8097   -9.3331  -32.3565 H   0  0  0  0  0  0  0  0  0  0  0  0
  -20.7495   -9.9356  -34.0120 H   0  0  0  0  0  0  0  0  0  0  0  0
  -21.6166   -1.9331  -25.1980 H   0  0  0  0  0  0  0  0  0  0  0  0
  -21.3597   -2.0487  -26.9325 H   0  0  0  0  0  0  0  0  0  0  0  0
  -19.4502   -4.5552  -31.5610 H   0  0  0  0  0  0  0  0  0  0  0  0
  -19.8075   -3.4273  -32.8766 H   0  0  0  0  0  0  0  0  0  0  0  0
  -22.0202   -2.6984  -28.5198 H   0  0  0  0  0  0  0  0  0  0  0  0
  -22.1606   -4.2196  -32.5809 H   0  0  0  0  0  0  0  0  0  0  0  0
  -19.9242   -3.9946  -36.2018 H   0  0  0  0  0  0  0  0  0  0  0  0
  1  3  1  0  0  0  0
  1 10  2  0  0  0  0
  2  4  2  0  0  0  0
  2 10  1  0  0  0  0
  3 11  2  0  0  0  0
  4 11  1  0  0  0  0
  5  6  1  0  0  0  0
  5 12  2  0  0  0  0
  6 16  2  0  0  0  0
  7 12  1  0  0  0  0
  7 13  2  0  0  0  0
  8 14  2  0  0  0  0
  8 17  1  0  0  0  0
  9 15  2  0  0  0  0
  9 18  1  0  0  0  0
 10 26  1  0  0  0  0
 11 28  1  0  0  0  0
 12 25  1  0  0  0  0
 13 16  1  0  0  0  0
 13 27  1  0  0  0  0
 14 15  1  0  0  0  0
 14 29  1  0  0  0  0
 15 30  1  0  0  0  0
 16 33  1  0  0  0  0
 17 18  2  0  0  0  0
 17 34  1  0  0  0  0
 18 35  1  0  0  0  0
 19 29  2  0  0  0  0
 19 30  1  0  0  0  0
 19 31  1  0  0  0  0
 20 22  1  0  0  0  0
 20 24  1  0  0  0  0
 21 23  1  0  0  0  0
 21 24  1  0  0  0  0
 22 32  1  0  0  0  0
 23 32  1  0  0  0  0
 24 31  1  0  0  0  0
 26 30  1  0  0  0  0
 27 32  1  0  0  0  0
 28 36  1  0  0  0  0
 28 37  1  0  0  0  0
 28 38  1  0  0  0  0
  1 39  1  0  0  0  0
  2 40  1  0  0  0  0
  3 41  1  0  0  0  0
  4 42  1  0  0  0  0
  5 43  1  0  0  0  0
  6 44  1  0  0  0  0
  7 45  1  0  0  0  0
  8 46  1  0  0  0  0
  9 47  1  0  0  0  0
 20 48  1  0  0  0  0
 20 49  1  0  0  0  0
 21 50  1  0  0  0  0
 21 51  1  0  0  0  0
 22 52  1  0  0  0  0
 22 53  1  0  0  0  0
 23 54  1  0  0  0  0
 23 55  1  0  0  0  0
 24 56  1  0  0  0  0
 25 57  1  0  0  0  0
 25 58  1  0  0  0  0
 25 59  1  0  0  0  0
 26 60  1  0  0  0  0
 26 61  1  0  0  0  0
 27 62  1  0  0  0  0
 27 63  1  0  0  0  0
 31 64  1  0  0  0  0
 32 65  1  0  0  0  0
 33 66  1  0  0  0  0
M  CHG  1  32   1
M  END
> <SMILES>
Cc1ccc(c(c1)CN1CCC(CC1)Nc1nc2cc(c(cc2n1Cc1ccc(cc1)C(F)(F)F)F)F)O

> <FORMATTED_ID>
H3D-012703

> <MOLFORMULA>
C28H27F5N4O

> <Exact Mass>
530.21

> <XLogP>
7.8

> <TPSA_NOPS>
53.3

> <s_m_source_file>
ligprep_h3d.sdf

> <i_m_source_file_index>
2921

> <i_lp_mmshare_version>
55123

> <i_f3d_flags>
0

> <s_epik_input>
W0NIM11jMVtjSF1bY0hdYyhbT0hdKWMoW2NIXTEpW0NIMl1OMltDSDJdW0NIMl1bQ0hdKFtDSDJdW0NIMl0yKVtOSF1jKG4zKW4oYyhjMzQpW2NIXWMoRiljKEYpW2NIXTQpW0NIMl1jNVtjSF1bY0hdYyhDKEYpKEYpRilbY0hdW2NIXTU=

> <s_epik_cmdline>
J2VwaWtfcHl0aG9uJywgJy1waHQnLCAnMC41JywgJy1waCcsICc3LjUnLCAnLXRuJywgJzgnLCAnLW1hJywgJzUwMCcsICctaW1hZScsICc8aW5maWxlLm1hZT4nLCAnLW9tYWUnLCAnPG91dGZpbGUubWFlPic=

> <r_lp_tautomer_probability>
1

> <r_epik_Ionization_Penalty>
0.548531

> <r_epik_Ionization_Penalty_Charging>
0.463642

> <r_epik_Ionization_Penalty_Neutral>
0.0848893

> <r_epik_State_Penalty>
0.46735

> <r_epik_Charging_Adjusted_Penalty>
0.930991

> <i_epik_Tot_Q>
1

> <i_epik_Tot_abs_Q>
1

> <s_lp_Force_Field>
S-OPLS

> <r_lp_Energy>
36.3346

> <b_lp_Chiralities_Consistent>
1

> <s_lp_Variant>
ligprep_h3d.sdf:2921-2

> <ROCS_ShapeQuery>
_7L13

> <ROCS_TanimotoCombo>
0.689 

> <ROCS_ShapeTanimoto>
0.591 

> <ROCS_ColorTanimoto>
0.098 

> <ROCS_RefTversky>
0.762 

> <ROCS_RefColorTversky>
0.196 

> <ROCS_RefTverskyCombo>
0.958 

> <ROCS_FitTversky>
0.726 

> <ROCS_FitColorTversky>
0.163 

> <ROCS_FitTverskyCombo>
0.889 

> <ROCS_ColorScore>
-1.784

> <ROCS_Overlap>
1268.285

> <ROCS_Rank>
714                 

$$$$
ligprep_h3d.sdf:975_1318
  -OEChem-08212117123D

 62 67  0     1  0  0  0  0  0999 V2000
  -20.5878   -4.5121  -29.5225 C   0  0  0  0  0  0  0  0  0  0  0  0
  -21.5071   -4.1088  -30.4947 C   0  0  0  0  0  0  0  0  0  0  0  0
  -20.9777   -4.4944  -28.1612 C   0  0  0  0  0  0  0  0  0  0  0  0
  -22.2701   -4.0724  -27.7594 C   0  0  0  0  0  0  0  0  0  0  0  0
  -22.7595   -3.7017  -30.0882 C   0  0  0  0  0  0  0  0  0  0  0  0
  -23.1815   -3.6657  -28.7599 C   0  0  0  0  0  0  0  0  0  0  0  0
  -21.5489   -3.9729  -31.8950 C   0  0  0  0  0  0  0  0  0  0  0  0
  -19.2081   -4.8091  -24.7930 C   0  0  0  0  0  0  0  0  0  0  0  0
  -19.6739   -7.8324  -35.3101 C   0  0  0  0  0  0  0  0  0  0  0  0
  -21.0082   -6.4722  -25.5137 C   0  0  0  0  0  0  0  0  0  0  0  0
  -18.8144   -7.0715  -24.5132 C   0  0  0  0  0  0  0  0  0  0  0  0
  -19.9337   -4.9211  -27.1512 C   0  0  0  0  0  0  0  0  0  0  0  0
  -19.3769   -6.9975  -36.5329 C   0  0  0  0  0  0  0  0  0  0  0  0
  -20.0390   -5.6630  -36.2146 C   0  0  0  0  0  0  0  0  0  0  0  0
  -23.9873   -3.9018  -25.9525 C   0  0  0  0  0  0  0  0  0  0  0  0
  -21.5281   -3.9732  -25.4231 C   0  0  1  0  0  0  0  0  0  0  0  0
  -19.9344   -5.5611  -34.6973 C   0  0  1  0  0  0  0  0  0  0  0  0
  -24.2578   -4.7637  -24.7163 C   0  0  2  0  0  0  0  0  0  0  0  0
  -22.0773   -3.9971  -23.9718 C   0  0  1  0  0  0  0  0  0  0  0  0
  -20.4420   -5.0692  -25.6920 C   0  0  2  0  0  0  0  0  0  0  0  0
  -25.4786   -4.2709  -23.9468 C   0  0  0  0  0  0  0  0  0  0  0  0
  -22.4174   -2.6103  -23.4224 C   0  0  0  0  0  0  0  0  0  0  0  0
  -20.2294   -7.3470  -32.9046 C   0  0  0  0  0  0  0  0  0  0  0  0
  -21.0040   -4.6547  -34.1072 C   0  0  0  0  0  0  0  0  0  0  0  0
  -22.7298   -3.5188  -32.3254 N   0  0  0  0  0  0  0  0  0  0  0  0
  -18.3587   -5.8251  -24.6345 N   0  5  0  0  0  0  0  0  0  0  0  0
  -20.1275   -7.3361  -24.8946 N   0  0  0  0  0  0  0  0  0  0  0  0
  -22.6161   -4.0830  -26.4065 N   0  0  3  0  0  0  0  0  0  0  0  0
  -20.0168   -6.9511  -34.2829 N   0  0  0  0  0  0  0  0  0  0  0  0
  -18.9781   -3.6763  -24.3670 O   0  0  0  0  0  0  0  0  0  0  0  0
  -19.5721   -9.0493  -35.2603 O   0  0  0  0  0  0  0  0  0  0  0  0
  -22.1011   -6.8384  -25.9380 O   0  0  0  0  0  0  0  0  0  0  0  0
  -18.1166   -8.0044  -24.1067 O   0  0  0  0  0  0  0  0  0  0  0  0
  -23.4944   -3.3460  -31.1775 O   0  0  0  0  0  0  0  0  0  0  0  0
  -23.1669   -4.8973  -23.8103 O   0  0  0  0  0  0  0  0  0  0  0  0
  -20.5928   -4.2384  -32.7952 O   0  0  0  0  0  0  0  0  0  0  0  0
  -24.4552   -3.3464  -28.5142 F   0  0  0  0  0  0  0  0  0  0  0  0
  -19.5929   -4.8429  -29.8102 H   0  0  0  0  0  0  0  0  0  0  0  0
  -19.4877   -5.8793  -27.4840 H   0  0  0  0  0  0  0  0  0  0  0  0
  -19.1111   -4.1806  -27.2012 H   0  0  0  0  0  0  0  0  0  0  0  0
  -18.2991   -6.8908  -36.6811 H   0  0  0  0  0  0  0  0  0  0  0  0
  -19.8293   -7.4766  -37.4072 H   0  0  0  0  0  0  0  0  0  0  0  0
  -19.4660   -4.8523  -36.6791 H   0  0  0  0  0  0  0  0  0  0  0  0
  -21.0639   -5.6119  -36.5896 H   0  0  0  0  0  0  0  0  0  0  0  0
  -24.7727   -4.1138  -26.6849 H   0  0  0  0  0  0  0  0  0  0  0  0
  -24.1171   -2.8370  -25.6925 H   0  0  0  0  0  0  0  0  0  0  0  0
  -21.0550   -3.0009  -25.6005 H   0  0  0  0  0  0  0  0  0  0  0  0
  -18.9298   -5.1658  -34.4255 H   0  0  0  0  0  0  0  0  0  0  0  0
  -24.5324   -5.8190  -25.0706 H   0  0  0  0  0  0  0  0  0  0  0  0
  -21.2357   -4.3781  -23.2913 H   0  0  0  0  0  0  0  0  0  0  0  0
  -25.3008   -3.2633  -23.5707 H   0  0  0  0  0  0  0  0  0  0  0  0
  -25.6804   -4.9323  -23.1041 H   0  0  0  0  0  0  0  0  0  0  0  0
  -26.3506   -4.2554  -24.6010 H   0  0  0  0  0  0  0  0  0  0  0  0
  -23.2175   -2.1615  -24.0114 H   0  0  0  0  0  0  0  0  0  0  0  0
  -21.5399   -1.9651  -23.4687 H   0  0  0  0  0  0  0  0  0  0  0  0
  -22.7437   -2.6895  -22.3852 H   0  0  0  0  0  0  0  0  0  0  0  0
  -19.2782   -7.2896  -32.3552 H   0  0  0  0  0  0  0  0  0  0  0  0
  -20.9631   -6.6728  -32.4386 H   0  0  0  0  0  0  0  0  0  0  0  0
  -20.6087   -8.3791  -32.8741 H   0  0  0  0  0  0  0  0  0  0  0  0
  -21.9562   -5.1874  -34.0257 H   0  0  0  0  0  0  0  0  0  0  0  0
  -21.1423   -3.7670  -34.7316 H   0  0  0  0  0  0  0  0  0  0  0  0
  -20.4760   -8.2683  -24.6951 H   0  0  0  0  0  0  0  0  0  0  0  0
  1  2  2  0  0  0  0
  1  3  1  0  0  0  0
  2  5  1  0  0  0  0
  2  7  1  0  0  0  0
  3  4  2  0  0  0  0
  3 12  1  0  0  0  0
  4  6  1  0  0  0  0
  4 28  1  0  0  0  0
  5  6  2  0  0  0  0
  5 34  1  0  0  0  0
  6 37  1  0  0  0  0
  7 25  2  0  0  0  0
  7 36  1  0  0  0  0
  8 20  1  0  0  0  0
  8 26  1  0  0  0  0
  8 30  2  0  0  0  0
  9 13  1  0  0  0  0
  9 29  1  0  0  0  0
  9 31  2  0  0  0  0
 10 20  1  0  0  0  0
 10 27  1  0  0  0  0
 10 32  2  0  0  0  0
 11 26  1  0  0  0  0
 11 27  1  0  0  0  0
 11 33  2  0  0  0  0
 12 20  1  0  0  0  0
 13 14  1  0  0  0  0
 14 17  1  0  0  0  0
 15 18  1  0  0  0  0
 15 28  1  0  0  0  0
 16 19  1  0  0  0  0
 16 20  1  0  0  0  0
 16 28  1  0  0  0  0
 17 24  1  0  0  0  0
 17 29  1  0  0  0  0
 18 21  1  0  0  0  0
 18 35  1  0  0  0  0
 19 22  1  0  0  0  0
 19 35  1  0  0  0  0
 23 29  1  0  0  0  0
 24 36  1  0  0  0  0
 25 34  1  0  0  0  0
  1 38  1  0  0  0  0
 12 39  1  0  0  0  0
 12 40  1  0  0  0  0
 13 41  1  0  0  0  0
 13 42  1  0  0  0  0
 14 43  1  0  0  0  0
 14 44  1  0  0  0  0
 15 45  1  0  0  0  0
 15 46  1  0  0  0  0
 16 47  1  0  0  0  0
 17 48  1  0  0  0  0
 18 49  1  0  0  0  0
 19 50  1  0  0  0  0
 21 51  1  0  0  0  0
 21 52  1  0  0  0  0
 21 53  1  0  0  0  0
 22 54  1  0  0  0  0
 22 55  1  0  0  0  0
 22 56  1  0  0  0  0
 23 57  1  0  0  0  0
 23 58  1  0  0  0  0
 23 59  1  0  0  0  0
 24 60  1  0  0  0  0
 24 61  1  0  0  0  0
 27 62  1  0  0  0  0
M  CHG  1  26  -1
M  END
> <SMILES>
C[C@H]1CN2[C@@H]([C@@H](C)O1)C1(Cc3cc4c(noc4c(c32)F)OC[C@@H]2CCC(=O)N2C)C(=O)NC(=O)NC1=O

> <FORMATTED_ID>
H3D-006043

> <MOLFORMULA>
C24H26FN5O7

> <Exact Mass>
515.18

> <XLogP>
0.83

> <TPSA_NOPS>
143.6

> <s_m_source_file>
ligprep_h3d.sdf

> <i_m_source_file_index>
975

> <i_lp_mmshare_version>
55123

> <i_f3d_flags>
0

> <s_epik_input>
Tz1DMVtOSF1DKD1PKVtOSF1DKD1PKUMxMltDQEhdM04oW0NIMl1bQ0BIXShbQ0gzXSlPW0NAQEhdM1tDSDNdKWM0YyhbQ0gyXTIpW2NIXWM1YyhjNEYpb25jNU9bQ0gyXVtDQEBIXTZbQ0gyXVtDSDJdQyg9TylONltDSDNd

> <s_epik_cmdline>
J2VwaWtfcHl0aG9uJywgJy1waHQnLCAnMC41JywgJy1waCcsICc3LjUnLCAnLXRuJywgJzgnLCAnLW1hJywgJzUwMCcsICctaW1hZScsICc8aW5maWxlLm1hZT4nLCAnLW9tYWUnLCAnPG91dGZpbGUubWFlPic=

> <r_lp_tautomer_probability>
1

> <r_epik_Ionization_Penalty>
0.455391

> <r_epik_Ionization_Penalty_Charging>
0.455373

> <r_epik_Ionization_Penalty_Neutral>
1.77674e-05

> <r_epik_State_Penalty>
0.458483

> <r_epik_Charging_Adjusted_Penalty>
0.913857

> <i_epik_Tot_Q>
-1

> <i_epik_Tot_abs_Q>
1

> <s_lp_Force_Field>
S-OPLS

> <r_lp_Energy>
43.6766

> <b_lp_Chiralities_Consistent>
1

> <s_lp_Variant>
ligprep_h3d.sdf:975-2

> <ROCS_ShapeQuery>
_7L13

> <ROCS_TanimotoCombo>
0.680 

> <ROCS_ShapeTanimoto>
0.592 

> <ROCS_ColorTanimoto>
0.088 

> <ROCS_RefTversky>
0.762 

> <ROCS_RefColorTversky>
0.217 

> <ROCS_RefTverskyCombo>
0.978 

> <ROCS_FitTversky>
0.726 

> <ROCS_FitColorTversky>
0.129 

> <ROCS_FitTverskyCombo>
0.855 

> <ROCS_ColorScore>
-2.028

> <ROCS_Overlap>
1268.213

> <ROCS_Rank>
715                 

$$$$
ligprep_h3d.sdf:5075_1146
  -OEChem-08212117123D

 76 81  0     0  0  0  0  0  0999 V2000
  -24.9134   -4.2041  -22.6443 C   0  0  0  0  0  0  0  0  0  0  0  0
  -25.6182   -5.2295  -23.2715 C   0  0  0  0  0  0  0  0  0  0  0  0
  -22.1885   -5.3327  -33.8794 C   0  0  0  0  0  0  0  0  0  0  0  0
  -23.8747   -3.5396  -23.3065 C   0  0  0  0  0  0  0  0  0  0  0  0
  -25.3092   -5.6231  -24.5766 C   0  0  0  0  0  0  0  0  0  0  0  0
  -21.3204   -4.4714  -33.2084 C   0  0  0  0  0  0  0  0  0  0  0  0
  -21.6911   -6.4753  -34.5061 C   0  0  0  0  0  0  0  0  0  0  0  0
  -22.5787   -3.4773  -25.5694 C   0  0  0  0  0  0  0  0  0  0  0  0
  -17.3251   -4.6446  -29.3728 C   0  0  0  0  0  0  0  0  0  0  0  0
  -19.9376   -4.1131  -30.2829 C   0  0  0  0  0  0  0  0  0  0  0  0
  -19.4575   -5.8954  -33.7906 C   0  0  0  0  0  0  0  0  0  0  0  0
  -23.5451   -3.9191  -24.6228 C   0  0  0  0  0  0  0  0  0  0  0  0
  -18.3956   -4.6212  -28.4847 C   0  0  0  0  0  0  0  0  0  0  0  0
  -24.2685   -4.9500  -25.2263 C   0  0  0  0  0  0  0  0  0  0  0  0
  -19.6903   -4.3571  -28.9383 C   0  0  0  0  0  0  0  0  0  0  0  0
  -19.9550   -4.7527  -33.1640 C   0  0  0  0  0  0  0  0  0  0  0  0
  -17.5650   -4.4006  -30.7248 C   0  0  0  0  0  0  0  0  0  0  0  0
  -18.8633   -4.1367  -31.1763 C   0  0  0  0  0  0  0  0  0  0  0  0
  -20.3256   -6.7566  -34.4617 C   0  0  0  0  0  0  0  0  0  0  0  0
  -22.7312   -4.2347  -26.7079 C   0  0  0  0  0  0  0  0  0  0  0  0
  -21.9692   -4.1593  -27.9622 C   0  0  0  0  0  0  0  0  0  0  0  0
  -17.4879   -3.7982  -26.2811 C   0  0  0  0  0  0  0  0  0  0  0  0
  -17.8455   -6.2705  -26.6576 C   0  0  0  0  0  0  0  0  0  0  0  0
  -19.8591   -4.6936  -26.6243 C   0  0  0  0  0  0  0  0  0  0  0  0
  -17.3556   -4.0544  -24.7839 C   0  0  0  0  0  0  0  0  0  0  0  0
  -17.7118   -6.5092  -25.1578 C   0  0  0  0  0  0  0  0  0  0  0  0
  -18.3563   -4.8553  -26.9907 C   0  0  0  0  0  0  0  0  0  0  0  0
  -20.4498   -7.0963  -37.6577 C   0  0  0  0  0  0  0  0  0  0  0  0
  -18.0788   -6.8732  -37.0338 C   0  0  0  0  0  0  0  0  0  0  0  0
  -16.5553   -5.7088  -23.1006 C   0  0  0  0  0  0  0  0  0  0  0  0
  -15.2299   -4.6972  -31.0642 C   0  0  0  0  0  0  0  0  0  0  0  0
  -23.7529   -5.1199  -26.4914 N   0  0  0  0  0  0  0  0  0  0  0  0
  -20.6021   -4.3855  -27.8659 N   0  0  0  0  0  0  0  0  0  0  0  0
  -19.3344   -7.6432  -36.8440 N   0  0  0  0  0  0  0  0  0  0  0  0
  -16.8231   -5.4479  -24.5576 N   0  3  0  0  0  0  0  0  0  0  0  0
  -22.6186   -3.9018  -28.9715 O   0  0  0  0  0  0  0  0  0  0  0  0
  -18.4618   -8.5680  -34.5792 O   0  0  0  0  0  0  0  0  0  0  0  0
  -20.7800   -9.1704  -35.3189 O   0  0  0  0  0  0  0  0  0  0  0  0
  -19.0938   -3.8981  -32.4993 O   0  0  0  0  0  0  0  0  0  0  0  0
  -16.5214   -4.4210  -31.6015 O   0  0  0  0  0  0  0  0  0  0  0  0
  -19.7036   -8.1886  -35.2442 S   0  0  0  0  0  0  0  0  0  0  0  0
  -25.1726   -3.9153  -21.6290 H   0  0  0  0  0  0  0  0  0  0  0  0
  -26.4209   -5.7321  -22.7383 H   0  0  0  0  0  0  0  0  0  0  0  0
  -23.2515   -5.1134  -33.9142 H   0  0  0  0  0  0  0  0  0  0  0  0
  -23.3336   -2.7415  -22.8058 H   0  0  0  0  0  0  0  0  0  0  0  0
  -25.8578   -6.4217  -25.0646 H   0  0  0  0  0  0  0  0  0  0  0  0
  -21.7139   -3.5829  -32.7224 H   0  0  0  0  0  0  0  0  0  0  0  0
  -22.3761   -7.1402  -35.0251 H   0  0  0  0  0  0  0  0  0  0  0  0
  -21.8514   -2.6889  -25.4281 H   0  0  0  0  0  0  0  0  0  0  0  0
  -16.3179   -4.8485  -29.0224 H   0  0  0  0  0  0  0  0  0  0  0  0
  -20.9307   -3.9058  -30.6626 H   0  0  0  0  0  0  0  0  0  0  0  0
  -18.3922   -6.1100  -33.7535 H   0  0  0  0  0  0  0  0  0  0  0  0
  -17.9001   -2.7931  -26.4395 H   0  0  0  0  0  0  0  0  0  0  0  0
  -16.4810   -3.7812  -26.7199 H   0  0  0  0  0  0  0  0  0  0  0  0
  -16.8652   -6.4376  -27.1242 H   0  0  0  0  0  0  0  0  0  0  0  0
  -18.5122   -7.0306  -27.0854 H   0  0  0  0  0  0  0  0  0  0  0  0
  -20.2902   -5.6052  -26.1941 H   0  0  0  0  0  0  0  0  0  0  0  0
  -20.0363   -3.8760  -25.9157 H   0  0  0  0  0  0  0  0  0  0  0  0
  -16.6402   -3.3543  -24.3395 H   0  0  0  0  0  0  0  0  0  0  0  0
  -18.3133   -3.9740  -24.2590 H   0  0  0  0  0  0  0  0  0  0  0  0
  -18.6759   -6.4687  -24.6399 H   0  0  0  0  0  0  0  0  0  0  0  0
  -17.2393   -7.4785  -24.9668 H   0  0  0  0  0  0  0  0  0  0  0  0
  -21.3568   -7.6948  -37.4869 H   0  0  0  0  0  0  0  0  0  0  0  0
  -20.6389   -6.0527  -37.3660 H   0  0  0  0  0  0  0  0  0  0  0  0
  -20.1798   -7.1359  -38.7233 H   0  0  0  0  0  0  0  0  0  0  0  0
  -17.2822   -7.3115  -36.4146 H   0  0  0  0  0  0  0  0  0  0  0  0
  -17.7825   -6.9104  -38.0924 H   0  0  0  0  0  0  0  0  0  0  0  0
  -18.2416   -5.8271  -36.7351 H   0  0  0  0  0  0  0  0  0  0  0  0
  -17.5078   -5.6513  -22.5705 H   0  0  0  0  0  0  0  0  0  0  0  0
  -16.1176   -6.7051  -23.0145 H   0  0  0  0  0  0  0  0  0  0  0  0
  -15.8622   -4.9435  -22.7460 H   0  0  0  0  0  0  0  0  0  0  0  0
  -14.4895   -4.6836  -31.8678 H   0  0  0  0  0  0  0  0  0  0  0  0
  -15.2381   -5.6762  -30.5784 H   0  0  0  0  0  0  0  0  0  0  0  0
  -14.9795   -3.9295  -30.3282 H   0  0  0  0  0  0  0  0  0  0  0  0
  -24.0829   -5.8017  -27.1609 H   0  0  0  0  0  0  0  0  0  0  0  0
  -15.9128   -5.5074  -25.0343 H   0  0  0  0  0  0  0  0  0  0  0  0
  1  2  2  0  0  0  0
  1  4  1  0  0  0  0
  2  5  1  0  0  0  0
  3  6  1  0  0  0  0
  3  7  2  0  0  0  0
  4 12  2  0  0  0  0
  5 14  2  0  0  0  0
  6 16  2  0  0  0  0
  7 19  1  0  0  0  0
  8 12  1  0  0  0  0
  8 20  2  0  0  0  0
  9 13  1  0  0  0  0
  9 17  2  0  0  0  0
 10 15  1  0  0  0  0
 10 18  2  0  0  0  0
 11 16  1  0  0  0  0
 11 19  2  0  0  0  0
 12 14  1  0  0  0  0
 13 15  2  0  0  0  0
 13 27  1  0  0  0  0
 14 32  1  0  0  0  0
 15 33  1  0  0  0  0
 16 39  1  0  0  0  0
 17 18  1  0  0  0  0
 17 40  1  0  0  0  0
 18 39  1  0  0  0  0
 19 41  1  0  0  0  0
 20 21  1  0  0  0  0
 20 32  1  0  0  0  0
 21 33  1  0  0  0  0
 21 36  2  0  0  0  0
 22 25  1  0  0  0  0
 22 27  1  0  0  0  0
 23 26  1  0  0  0  0
 23 27  1  0  0  0  0
 24 27  1  0  0  0  0
 24 33  1  0  0  0  0
 25 35  1  0  0  0  0
 26 35  1  0  0  0  0
 28 34  1  0  0  0  0
 29 34  1  0  0  0  0
 30 35  1  0  0  0  0
 31 40  1  0  0  0  0
 34 41  1  0  0  0  0
 37 41  2  0  0  0  0
 38 41  2  0  0  0  0
  1 42  1  0  0  0  0
  2 43  1  0  0  0  0
  3 44  1  0  0  0  0
  4 45  1  0  0  0  0
  5 46  1  0  0  0  0
  6 47  1  0  0  0  0
  7 48  1  0  0  0  0
  8 49  1  0  0  0  0
  9 50  1  0  0  0  0
 10 51  1  0  0  0  0
 11 52  1  0  0  0  0
 22 53  1  0  0  0  0
 22 54  1  0  0  0  0
 23 55  1  0  0  0  0
 23 56  1  0  0  0  0
 24 57  1  0  0  0  0
 24 58  1  0  0  0  0
 25 59  1  0  0  0  0
 25 60  1  0  0  0  0
 26 61  1  0  0  0  0
 26 62  1  0  0  0  0
 28 63  1  0  0  0  0
 28 64  1  0  0  0  0
 28 65  1  0  0  0  0
 29 66  1  0  0  0  0
 29 67  1  0  0  0  0
 29 68  1  0  0  0  0
 30 69  1  0  0  0  0
 30 70  1  0  0  0  0
 30 71  1  0  0  0  0
 31 72  1  0  0  0  0
 31 73  1  0  0  0  0
 31 74  1  0  0  0  0
 32 75  1  0  0  0  0
 35 76  1  0  0  0  0
M  CHG  1  35   1
M  END
> <SMILES>
COc1cc2c(cc1Oc1cccc(c1)S(=O)(=O)N(C)C)N(CC12CCN(C)CC1)C(=O)c1cc2ccccc2[nH]1

> <FORMATTED_ID>
H3D-012429

> <MOLFORMULA>
C31H34N4O5S

> <Exact Mass>
574.22

> <XLogP>
5.45

> <TPSA_NOPS>
103.6

> <s_m_source_file>
ligprep_h3d.sdf

> <i_m_source_file_index>
5075

> <i_lp_mmshare_version>
55123

> <i_f3d_flags>
0

> <s_epik_input>
W0NIM11OKFtDSDNdKVMoPU8pKD1PKWMoW2NIXTEpW2NIXVtjSF1bY0hdYzFPYyhjKFtjSF0yKU9bQ0gzXSlbY0hdYyhjMkMzNFtDSDJdW0NIMl1OKFtDSDNdKVtDSDJdW0NIMl00KU4oW0NIMl0zKUMoPU8pYyhbY0hdNSlbbkhdYyhjNTYpW2NIXVtjSF1bY0hdW2NIXTY=

> <s_epik_cmdline>
J2VwaWtfcHl0aG9uJywgJy1waHQnLCAnMC41JywgJy1waCcsICc3LjUnLCAnLXRuJywgJzgnLCAnLW1hJywgJzUwMCcsICctaW1hZScsICc8aW5maWxlLm1hZT4nLCAnLW9tYWUnLCAnPG91dGZpbGUubWFlPic=

> <r_lp_tautomer_probability>
1

> <r_epik_Ionization_Penalty>
0.0121631

> <r_epik_Ionization_Penalty_Charging>
0.012163

> <r_epik_Ionization_Penalty_Neutral>
1.84043e-07

> <r_epik_State_Penalty>
0.00940041

> <r_epik_Charging_Adjusted_Penalty>
0.0215634

> <i_epik_Tot_Q>
1

> <i_epik_Tot_abs_Q>
1

> <s_lp_Force_Field>
S-OPLS

> <r_lp_Energy>
90.9413

> <b_lp_Chiralities_Consistent>
1

> <s_lp_Variant>
ligprep_h3d.sdf:5075-1

> <ROCS_ShapeQuery>
_7L13

> <ROCS_TanimotoCombo>
0.609 

> <ROCS_ShapeTanimoto>
0.562 

> <ROCS_ColorTanimoto>
0.046 

> <ROCS_RefTversky>
0.762 

> <ROCS_RefColorTversky>
0.110 

> <ROCS_RefTverskyCombo>
0.872 

> <ROCS_FitTversky>
0.683 

> <ROCS_FitColorTversky>
0.074 

> <ROCS_FitTverskyCombo>
0.757 

> <ROCS_ColorScore>
-1.021

> <ROCS_Overlap>
1272.808

> <ROCS_Rank>
716                 

$$$$
ligprep_h3d.sdf:1076_1839
  -OEChem-08212117123D

 69 73  0     0  0  0  0  0  0999 V2000
  -19.8535   -3.8780  -32.3715 C   0  0  0  0  0  0  0  0  0  0  0  0
  -20.1663   -6.2640  -32.1557 C   0  0  0  0  0  0  0  0  0  0  0  0
  -19.2761   -4.0673  -33.6270 C   0  0  0  0  0  0  0  0  0  0  0  0
  -19.5889   -6.4532  -33.4112 C   0  0  0  0  0  0  0  0  0  0  0  0
  -16.5756   -5.6288  -26.5728 C   0  0  0  0  0  0  0  0  0  0  0  0
  -22.8615   -4.4000  -28.9732 C   0  0  0  0  0  0  0  0  0  0  0  0
  -20.5637   -4.3875  -25.5104 C   0  0  0  0  0  0  0  0  0  0  0  0
  -16.5420   -4.2274  -26.7023 C   0  0  0  0  0  0  0  0  0  0  0  0
  -20.7115   -4.5858  -27.9154 C   0  0  0  0  0  0  0  0  0  0  0  0
  -20.2986   -4.9764  -31.6358 C   0  0  0  0  0  0  0  0  0  0  0  0
  -20.9004   -4.7794  -30.3275 C   0  0  0  0  0  0  0  0  0  0  0  0
  -22.2731   -4.5905  -30.2259 C   0  0  0  0  0  0  0  0  0  0  0  0
  -20.1194   -4.7773  -29.1753 C   0  0  0  0  0  0  0  0  0  0  0  0
  -22.1046   -4.3935  -27.8047 C   0  0  0  0  0  0  0  0  0  0  0  0
  -19.9492   -4.5791  -26.7395 C   0  0  0  0  0  0  0  0  0  0  0  0
  -19.1438   -5.3548  -34.1469 C   0  0  0  0  0  0  0  0  0  0  0  0
  -21.9321   -4.2078  -25.5023 C   0  0  0  0  0  0  0  0  0  0  0  0
  -17.9131   -5.9415  -26.5711 C   0  0  0  0  0  0  0  0  0  0  0  0
  -22.6379   -4.0036  -24.2490 C   0  0  0  0  0  0  0  0  0  0  0  0
  -18.7134   -7.4641  -36.8027 C   0  0  0  0  0  0  0  0  0  0  0  0
  -19.5614   -5.2316  -37.5601 C   0  0  0  0  0  0  0  0  0  0  0  0
  -19.4424   -8.0701  -37.9936 C   0  0  0  0  0  0  0  0  0  0  0  0
  -20.2448   -5.9569  -38.7107 C   0  0  0  0  0  0  0  0  0  0  0  0
  -19.3831   -6.1649  -36.3653 C   0  0  0  0  0  0  0  0  0  0  0  0
  -23.1583   -4.5824  -31.4317 C   0  0  0  0  0  0  0  0  0  0  0  0
  -18.6430   -4.9875  -29.3633 C   0  0  0  0  0  0  0  0  0  0  0  0
  -18.5934   -7.2470  -26.4639 C   0  0  0  0  0  0  0  0  0  0  0  0
  -24.8010   -4.3053  -23.0157 C   0  0  0  0  0  0  0  0  0  0  0  0
  -26.1675   -4.9058  -23.2906 C   0  0  0  0  0  0  0  0  0  0  0  0
  -17.7612   -3.6871  -26.7776 N   0  0  0  0  0  0  0  0  0  0  0  0
  -22.7038   -4.2073  -26.6133 N   0  0  0  0  0  0  0  0  0  0  0  0
  -18.5735   -4.7546  -26.6952 N   0  0  0  0  0  0  0  0  0  0  0  0
  -23.9616   -4.4559  -24.1826 N   0  0  0  0  0  0  0  0  0  0  0  0
  -22.0805   -3.4312  -23.2948 O   0  0  0  0  0  0  0  0  0  0  0  0
  -19.5191   -7.1335  -39.0690 O   0  0  0  0  0  0  0  0  0  0  0  0
  -26.9780   -4.7871  -22.1282 O   0  0  0  0  0  0  0  0  0  0  0  0
  -18.5810   -5.5392  -35.3722 O   0  0  0  0  0  0  0  0  0  0  0  0
  -19.9498   -2.8683  -31.9797 H   0  0  0  0  0  0  0  0  0  0  0  0
  -20.5084   -7.1303  -31.5945 H   0  0  0  0  0  0  0  0  0  0  0  0
  -18.9315   -3.2078  -34.1955 H   0  0  0  0  0  0  0  0  0  0  0  0
  -19.4886   -7.4585  -33.8113 H   0  0  0  0  0  0  0  0  0  0  0  0
  -15.7449   -6.3145  -26.4925 H   0  0  0  0  0  0  0  0  0  0  0  0
  -23.9390   -4.2532  -28.9085 H   0  0  0  0  0  0  0  0  0  0  0  0
  -19.9963   -4.3779  -24.5839 H   0  0  0  0  0  0  0  0  0  0  0  0
  -15.6798   -3.5775  -26.7451 H   0  0  0  0  0  0  0  0  0  0  0  0
  -18.6748   -8.1732  -35.9681 H   0  0  0  0  0  0  0  0  0  0  0  0
  -17.6715   -7.2539  -37.0775 H   0  0  0  0  0  0  0  0  0  0  0  0
  -18.5751   -4.8739  -37.8836 H   0  0  0  0  0  0  0  0  0  0  0  0
  -20.1321   -4.3427  -37.2688 H   0  0  0  0  0  0  0  0  0  0  0  0
  -18.8992   -8.9488  -38.3554 H   0  0  0  0  0  0  0  0  0  0  0  0
  -20.4533   -8.3947  -37.7203 H   0  0  0  0  0  0  0  0  0  0  0  0
  -21.2756   -6.2288  -38.4547 H   0  0  0  0  0  0  0  0  0  0  0  0
  -20.2829   -5.3075  -39.5910 H   0  0  0  0  0  0  0  0  0  0  0  0
  -20.3600   -6.3903  -35.9202 H   0  0  0  0  0  0  0  0  0  0  0  0
  -23.2478   -3.5650  -31.8274 H   0  0  0  0  0  0  0  0  0  0  0  0
  -22.7580   -5.2318  -32.2187 H   0  0  0  0  0  0  0  0  0  0  0  0
  -24.1602   -4.9541  -31.1873 H   0  0  0  0  0  0  0  0  0  0  0  0
  -18.4123   -6.0548  -29.3177 H   0  0  0  0  0  0  0  0  0  0  0  0
  -18.3159   -4.5921  -30.3289 H   0  0  0  0  0  0  0  0  0  0  0  0
  -18.0762   -4.4657  -28.5871 H   0  0  0  0  0  0  0  0  0  0  0  0
  -18.7974   -7.5035  -25.4114 H   0  0  0  0  0  0  0  0  0  0  0  0
  -19.5555   -7.2579  -27.0040 H   0  0  0  0  0  0  0  0  0  0  0  0
  -17.9915   -8.0640  -26.8974 H   0  0  0  0  0  0  0  0  0  0  0  0
  -24.8760   -3.2384  -22.7825 H   0  0  0  0  0  0  0  0  0  0  0  0
  -24.3192   -4.8216  -22.1799 H   0  0  0  0  0  0  0  0  0  0  0  0
  -26.0687   -5.9699  -23.5263 H   0  0  0  0  0  0  0  0  0  0  0  0
  -26.6691   -4.4009  -24.1226 H   0  0  0  0  0  0  0  0  0  0  0  0
  -24.3892   -4.8593  -25.0097 H   0  0  0  0  0  0  0  0  0  0  0  0
  -27.8380   -5.1811  -22.3458 H   0  0  0  0  0  0  0  0  0  0  0  0
  1  3  1  0  0  0  0
  1 10  2  0  0  0  0
  2  4  2  0  0  0  0
  2 10  1  0  0  0  0
  3 16  2  0  0  0  0
  4 16  1  0  0  0  0
  5  8  1  0  0  0  0
  5 18  2  0  0  0  0
  6 12  2  0  0  0  0
  6 14  1  0  0  0  0
  7 15  1  0  0  0  0
  7 17  2  0  0  0  0
  8 30  2  0  0  0  0
  9 13  1  0  0  0  0
  9 14  1  0  0  0  0
  9 15  2  0  0  0  0
 10 11  1  0  0  0  0
 11 12  1  0  0  0  0
 11 13  2  0  0  0  0
 12 25  1  0  0  0  0
 13 26  1  0  0  0  0
 14 31  2  0  0  0  0
 15 32  1  0  0  0  0
 16 37  1  0  0  0  0
 17 19  1  0  0  0  0
 17 31  1  0  0  0  0
 18 27  1  0  0  0  0
 18 32  1  0  0  0  0
 19 33  1  0  0  0  0
 19 34  2  0  0  0  0
 20 22  1  0  0  0  0
 20 24  1  0  0  0  0
 21 23  1  0  0  0  0
 21 24  1  0  0  0  0
 22 35  1  0  0  0  0
 23 35  1  0  0  0  0
 24 37  1  0  0  0  0
 28 29  1  0  0  0  0
 28 33  1  0  0  0  0
 29 36  1  0  0  0  0
 30 32  1  0  0  0  0
  1 38  1  0  0  0  0
  2 39  1  0  0  0  0
  3 40  1  0  0  0  0
  4 41  1  0  0  0  0
  5 42  1  0  0  0  0
  6 43  1  0  0  0  0
  7 44  1  0  0  0  0
  8 45  1  0  0  0  0
 20 46  1  0  0  0  0
 20 47  1  0  0  0  0
 21 48  1  0  0  0  0
 21 49  1  0  0  0  0
 22 50  1  0  0  0  0
 22 51  1  0  0  0  0
 23 52  1  0  0  0  0
 23 53  1  0  0  0  0
 24 54  1  0  0  0  0
 25 55  1  0  0  0  0
 25 56  1  0  0  0  0
 25 57  1  0  0  0  0
 26 58  1  0  0  0  0
 26 59  1  0  0  0  0
 26 60  1  0  0  0  0
 27 61  1  0  0  0  0
 27 62  1  0  0  0  0
 27 63  1  0  0  0  0
 28 64  1  0  0  0  0
 28 65  1  0  0  0  0
 29 66  1  0  0  0  0
 29 67  1  0  0  0  0
 33 68  1  0  0  0  0
 36 69  1  0  0  0  0
M  END
> <SMILES>
Cc1cc2nc(cc(c2c(c1-c1ccc(cc1)OC1CCOCC1)C)-n1nccc1C)C(=O)NCCO

> <FORMATTED_ID>
H3D-006650

> <MOLFORMULA>
C29H32N4O4

> <Exact Mass>
500.24

> <XLogP>
3.9

> <TPSA_NOPS>
98.5

> <s_m_source_file>
ligprep_h3d.sdf

> <i_m_source_file_index>
1076

> <i_lp_mmshare_version>
55123

> <i_f3d_flags>
0

> <s_epik_input>
W09IXVtDSDJdW0NIMl1bTkhdQyg9TyljKG4xKVtjSF1jKC1uMm5bY0hdW2NIXWMyW0NIM10pYyhjMTMpYyhbQ0gzXSljKGMoW0NIM10pW2NIXTMpLWM0W2NIXVtjSF1jKFtjSF1bY0hdNClPW0NIXTVbQ0gyXVtDSDJdT1tDSDJdW0NIMl01

> <s_epik_cmdline>
J2VwaWtfcHl0aG9uJywgJy1waHQnLCAnMC41JywgJy1waCcsICc3LjUnLCAnLXRuJywgJzgnLCAnLW1hJywgJzUwMCcsICctaW1hZScsICc8aW5maWxlLm1hZT4nLCAnLW9tYWUnLCAnPG91dGZpbGUubWFlPic=

> <r_lp_tautomer_probability>
1

> <r_epik_Ionization_Penalty>
1.84228e-05

> <r_epik_Ionization_Penalty_Charging>
0

> <r_epik_Ionization_Penalty_Neutral>
1.84228e-05

> <r_epik_State_Penalty>
-0

> <r_epik_Charging_Adjusted_Penalty>
0

> <i_epik_Tot_Q>
0

> <i_epik_Tot_abs_Q>
0

> <s_lp_Force_Field>
S-OPLS

> <r_lp_Energy>
54.5398

> <b_lp_Chiralities_Consistent>
1

> <s_lp_Variant>
ligprep_h3d.sdf:1076-1

> <ROCS_ShapeQuery>
_7L13

> <ROCS_TanimotoCombo>
0.753 

> <ROCS_ShapeTanimoto>
0.601 

> <ROCS_ColorTanimoto>
0.152 

> <ROCS_RefTversky>
0.762 

> <ROCS_RefColorTversky>
0.316 

> <ROCS_RefTverskyCombo>
1.077 

> <ROCS_FitTversky>
0.740 

> <ROCS_FitColorTversky>
0.227 

> <ROCS_FitTverskyCombo>
0.967 

> <ROCS_ColorScore>
-2.903

> <ROCS_Overlap>
1266.639

> <ROCS_Rank>
717                 

$$$$
ligprep_h3d.sdf:4764_1478
  -OEChem-08212117123D

 72 76  0     0  0  0  0  0  0999 V2000
  -15.9694   -5.2301  -25.8082 C   0  0  0  0  0  0  0  0  0  0  0  0
  -19.8931   -7.4951  -38.0008 C   0  0  0  0  0  0  0  0  0  0  0  0
  -16.8101   -5.9721  -24.9787 C   0  0  0  0  0  0  0  0  0  0  0  0
  -16.5037   -4.2542  -26.6496 C   0  0  0  0  0  0  0  0  0  0  0  0
  -19.8904   -6.1121  -37.8192 C   0  0  0  0  0  0  0  0  0  0  0  0
  -19.7210   -8.3426  -36.9064 C   0  0  0  0  0  0  0  0  0  0  0  0
  -18.1852   -5.7384  -24.9905 C   0  0  0  0  0  0  0  0  0  0  0  0
  -17.8788   -4.0205  -26.6614 C   0  0  0  0  0  0  0  0  0  0  0  0
  -19.7154   -5.5766  -36.5432 C   0  0  0  0  0  0  0  0  0  0  0  0
  -23.2031   -3.2551  -28.6404 C   0  0  0  0  0  0  0  0  0  0  0  0
  -21.0287   -4.9676  -29.1621 C   0  0  0  0  0  0  0  0  0  0  0  0
  -19.5460   -7.8071  -35.6303 C   0  0  0  0  0  0  0  0  0  0  0  0
  -22.7765   -3.4850  -29.9445 C   0  0  0  0  0  0  0  0  0  0  0  0
  -18.7196   -4.7625  -25.8319 C   0  0  0  0  0  0  0  0  0  0  0  0
  -21.6978   -4.3350  -30.2018 C   0  0  0  0  0  0  0  0  0  0  0  0
  -19.5432   -6.4241  -35.4487 C   0  0  0  0  0  0  0  0  0  0  0  0
  -22.5362   -3.8868  -27.5914 C   0  0  0  0  0  0  0  0  0  0  0  0
  -21.4559   -4.7376  -27.8514 C   0  0  0  0  0  0  0  0  0  0  0  0
  -19.3679   -8.7097  -34.5015 C   0  0  0  0  0  0  0  0  0  0  0  0
  -20.4578   -5.1654  -32.1973 C   0  0  0  0  0  0  0  0  0  0  0  0
  -24.8244   -3.3337  -31.4075 C   0  0  0  0  0  0  0  0  0  0  0  0
  -23.2463   -1.3686  -31.2329 C   0  0  0  0  0  0  0  0  0  0  0  0
  -22.4316   -3.5531  -32.2860 C   0  0  0  0  0  0  0  0  0  0  0  0
  -25.4681   -2.6962  -32.6337 C   0  0  0  0  0  0  0  0  0  0  0  0
  -23.9006   -0.7457  -32.4609 C   0  0  0  0  0  0  0  0  0  0  0  0
  -23.3562   -2.9057  -31.2161 C   0  0  0  0  0  0  0  0  0  0  0  0
  -26.0672   -0.5100  -33.6694 C   0  0  0  0  0  0  0  0  0  0  0  0
  -23.9393   -4.5476  -25.7885 C   0  0  0  0  0  0  0  0  0  0  0  0
  -20.1988   -4.5107  -25.8454 C   0  0  0  0  0  0  0  0  0  0  0  0
  -20.4171   -5.0644  -33.7043 C   0  0  0  0  0  0  0  0  0  0  0  0
  -21.4526   -4.4116  -31.5869 N   0  0  0  0  0  0  0  0  0  0  0  0
  -20.5082   -9.1306  -33.8252 N   0  0  0  0  0  0  0  0  0  0  0  0
  -25.3382   -1.1955  -32.5465 N   0  3  0  0  0  0  0  0  0  0  0  0
  -18.2375   -9.0795  -34.1417 O   0  0  0  0  0  0  0  0  0  0  0  0
  -19.6389   -5.8826  -31.6221 O   0  0  0  0  0  0  0  0  0  0  0  0
  -22.9472   -3.6665  -26.3106 O   0  0  0  0  0  0  0  0  0  0  0  0
  -20.8052   -5.3529  -26.8226 O   0  0  0  0  0  0  0  0  0  0  0  0
  -19.3742   -5.8772  -34.1986 O   0  0  0  0  0  0  0  0  0  0  0  0
  -14.8986   -5.4113  -25.7978 H   0  0  0  0  0  0  0  0  0  0  0  0
  -20.0294   -7.9118  -38.9948 H   0  0  0  0  0  0  0  0  0  0  0  0
  -16.3942   -6.7312  -24.3227 H   0  0  0  0  0  0  0  0  0  0  0  0
  -15.8493   -3.6755  -27.2947 H   0  0  0  0  0  0  0  0  0  0  0  0
  -20.0239   -5.4529  -38.6718 H   0  0  0  0  0  0  0  0  0  0  0  0
  -19.7253   -9.4188  -37.0598 H   0  0  0  0  0  0  0  0  0  0  0  0
  -18.8327   -6.3215  -24.3409 H   0  0  0  0  0  0  0  0  0  0  0  0
  -18.2862   -3.2582  -27.3203 H   0  0  0  0  0  0  0  0  0  0  0  0
  -19.7144   -4.4984  -36.4086 H   0  0  0  0  0  0  0  0  0  0  0  0
  -24.0417   -2.5956  -28.4386 H   0  0  0  0  0  0  0  0  0  0  0  0
  -20.1894   -5.6314  -29.3313 H   0  0  0  0  0  0  0  0  0  0  0  0
  -25.4159   -3.0585  -30.5236 H   0  0  0  0  0  0  0  0  0  0  0  0
  -24.8990   -4.4259  -31.4883 H   0  0  0  0  0  0  0  0  0  0  0  0
  -22.1942   -1.0578  -31.1885 H   0  0  0  0  0  0  0  0  0  0  0  0
  -23.7203   -0.9464  -30.3363 H   0  0  0  0  0  0  0  0  0  0  0  0
  -22.9826   -4.1801  -32.9958 H   0  0  0  0  0  0  0  0  0  0  0  0
  -21.8721   -2.8094  -32.8645 H   0  0  0  0  0  0  0  0  0  0  0  0
  -24.9965   -3.0181  -33.5682 H   0  0  0  0  0  0  0  0  0  0  0  0
  -26.5372   -2.9310  -32.6689 H   0  0  0  0  0  0  0  0  0  0  0  0
  -23.9037    0.3464  -32.3782 H   0  0  0  0  0  0  0  0  0  0  0  0
  -23.4036   -1.0363  -33.3925 H   0  0  0  0  0  0  0  0  0  0  0  0
  -25.5930   -0.8079  -34.6064 H   0  0  0  0  0  0  0  0  0  0  0  0
  -27.1096   -0.8325  -33.6371 H   0  0  0  0  0  0  0  0  0  0  0  0
  -25.9845    0.5672  -33.5130 H   0  0  0  0  0  0  0  0  0  0  0  0
  -24.1767   -4.2620  -24.7607 H   0  0  0  0  0  0  0  0  0  0  0  0
  -23.5666   -5.5746  -25.8158 H   0  0  0  0  0  0  0  0  0  0  0  0
  -24.8400   -4.4724  -26.4024 H   0  0  0  0  0  0  0  0  0  0  0  0
  -20.6413   -4.7236  -24.8663 H   0  0  0  0  0  0  0  0  0  0  0  0
  -20.4118   -3.4647  -26.0907 H   0  0  0  0  0  0  0  0  0  0  0  0
  -20.2476   -4.0325  -33.9942 H   0  0  0  0  0  0  0  0  0  0  0  0
  -21.3642   -5.4104  -34.1050 H   0  0  0  0  0  0  0  0  0  0  0  0
  -21.4172   -8.8021  -34.1324 H   0  0  0  0  0  0  0  0  0  0  0  0
  -20.4496   -9.7594  -33.0307 H   0  0  0  0  0  0  0  0  0  0  0  0
  -25.8026   -0.8996  -31.6768 H   0  0  0  0  0  0  0  0  0  0  0  0
  1  3  2  0  0  0  0
  1  4  1  0  0  0  0
  2  5  2  0  0  0  0
  2  6  1  0  0  0  0
  3  7  1  0  0  0  0
  4  8  2  0  0  0  0
  5  9  1  0  0  0  0
  6 12  2  0  0  0  0
  7 14  2  0  0  0  0
  8 14  1  0  0  0  0
  9 16  2  0  0  0  0
 10 13  1  0  0  0  0
 10 17  2  0  0  0  0
 11 15  1  0  0  0  0
 11 18  2  0  0  0  0
 12 16  1  0  0  0  0
 12 19  1  0  0  0  0
 13 15  2  0  0  0  0
 13 26  1  0  0  0  0
 14 29  1  0  0  0  0
 15 31  1  0  0  0  0
 16 38  1  0  0  0  0
 17 18  1  0  0  0  0
 17 36  1  0  0  0  0
 18 37  1  0  0  0  0
 19 32  1  0  0  0  0
 19 34  2  0  0  0  0
 20 30  1  0  0  0  0
 20 31  1  0  0  0  0
 20 35  2  0  0  0  0
 21 24  1  0  0  0  0
 21 26  1  0  0  0  0
 22 25  1  0  0  0  0
 22 26  1  0  0  0  0
 23 26  1  0  0  0  0
 23 31  1  0  0  0  0
 24 33  1  0  0  0  0
 25 33  1  0  0  0  0
 27 33  1  0  0  0  0
 28 36  1  0  0  0  0
 29 37  1  0  0  0  0
 30 38  1  0  0  0  0
  1 39  1  0  0  0  0
  2 40  1  0  0  0  0
  3 41  1  0  0  0  0
  4 42  1  0  0  0  0
  5 43  1  0  0  0  0
  6 44  1  0  0  0  0
  7 45  1  0  0  0  0
  8 46  1  0  0  0  0
  9 47  1  0  0  0  0
 10 48  1  0  0  0  0
 11 49  1  0  0  0  0
 21 50  1  0  0  0  0
 21 51  1  0  0  0  0
 22 52  1  0  0  0  0
 22 53  1  0  0  0  0
 23 54  1  0  0  0  0
 23 55  1  0  0  0  0
 24 56  1  0  0  0  0
 24 57  1  0  0  0  0
 25 58  1  0  0  0  0
 25 59  1  0  0  0  0
 27 60  1  0  0  0  0
 27 61  1  0  0  0  0
 27 62  1  0  0  0  0
 28 63  1  0  0  0  0
 28 64  1  0  0  0  0
 28 65  1  0  0  0  0
 29 66  1  0  0  0  0
 29 67  1  0  0  0  0
 30 68  1  0  0  0  0
 30 69  1  0  0  0  0
 32 70  1  0  0  0  0
 32 71  1  0  0  0  0
 33 72  1  0  0  0  0
M  CHG  1  33   1
M  END
> <SMILES>
COc1cc2c(cc1OCc1ccccc1)N(CC12CCN(C)CC1)C(=O)COc1ccccc1C(=O)N

> <FORMATTED_ID>
H3D-007405

> <MOLFORMULA>
C30H33N3O5

> <Exact Mass>
515.24

> <XLogP>
4.77

> <TPSA_NOPS>
94.3

> <s_m_source_file>
ligprep_h3d.sdf

> <i_m_source_file_index>
4764

> <i_lp_mmshare_version>
55123

> <i_f3d_flags>
0

> <s_epik_input>
W2NIXTFbY0hdW2NIXVtjSF1bY0hdYzFbQ0gyXU9jKGMoW2NIXTIpT1tDSDNdKVtjSF1jKGMyQzM0W0NIMl1bQ0gyXU4oW0NIM10pW0NIMl1bQ0gyXTQpTihbQ0gyXTMpQyg9TylbQ0gyXU9jNVtjSF1bY0hdW2NIXVtjSF1jNUMoPU8pW05IMl0=

> <s_epik_cmdline>
J2VwaWtfcHl0aG9uJywgJy1waHQnLCAnMC41JywgJy1waCcsICc3LjUnLCAnLXRuJywgJzgnLCAnLW1hJywgJzUwMCcsICctaW1hZScsICc8aW5maWxlLm1hZT4nLCAnLW9tYWUnLCAnPG91dGZpbGUubWFlPic=

> <r_lp_tautomer_probability>
1

> <r_epik_Ionization_Penalty>
0.0121794

> <r_epik_Ionization_Penalty_Charging>
0.012179

> <r_epik_Ionization_Penalty_Neutral>
4.3341e-07

> <r_epik_State_Penalty>
0.00941368

> <r_epik_Charging_Adjusted_Penalty>
0.0215927

> <i_epik_Tot_Q>
1

> <i_epik_Tot_abs_Q>
1

> <s_lp_Force_Field>
S-OPLS

> <r_lp_Energy>
80.8498

> <b_lp_Chiralities_Consistent>
1

> <s_lp_Variant>
ligprep_h3d.sdf:4764-1

> <ROCS_ShapeQuery>
_7L13

> <ROCS_TanimotoCombo>
0.645 

> <ROCS_ShapeTanimoto>
0.596 

> <ROCS_ColorTanimoto>
0.048 

> <ROCS_RefTversky>
0.762 

> <ROCS_RefColorTversky>
0.111 

> <ROCS_RefTverskyCombo>
0.872 

> <ROCS_FitTversky>
0.733 

> <ROCS_FitColorTversky>
0.079 

> <ROCS_FitTverskyCombo>
0.812 

> <ROCS_ColorScore>
-1.017

> <ROCS_Overlap>
1267.356

> <ROCS_Rank>
718                 

$$$$
ligprep_h3d.sdf:1058_46
  -OEChem-08212117123D

 60 65  0     1  0  0  0  0  0999 V2000
  -20.9612   -5.1232  -29.5111 C   0  0  0  0  0  0  0  0  0  0  0  0
  -21.7406   -4.3679  -30.3895 C   0  0  0  0  0  0  0  0  0  0  0  0
  -21.0769   -4.8851  -28.1198 C   0  0  0  0  0  0  0  0  0  0  0  0
  -21.9819   -3.9395  -27.5831 C   0  0  0  0  0  0  0  0  0  0  0  0
  -22.5946   -3.4244  -29.8625 C   0  0  0  0  0  0  0  0  0  0  0  0
  -22.7448   -3.1755  -28.4980 C   0  0  0  0  0  0  0  0  0  0  0  0
  -21.9368   -4.2592  -31.7788 C   0  0  0  0  0  0  0  0  0  0  0  0
  -18.9185   -3.8133  -26.2013 C   0  0  0  0  0  0  0  0  0  0  0  0
  -19.2486   -6.0834  -25.0248 C   0  0  0  0  0  0  0  0  0  0  0  0
  -16.9928   -5.3085  -25.7242 C   0  0  0  0  0  0  0  0  0  0  0  0
  -20.4406   -4.5782  -33.7939 C   0  0  0  0  0  0  0  0  0  0  0  0
  -20.2065   -5.7032  -27.2037 C   0  0  0  0  0  0  0  0  0  0  0  0
  -23.0535   -2.8033  -25.6482 C   0  0  0  0  0  0  0  0  0  0  0  0
  -21.2098   -4.4748  -25.2376 C   0  0  2  0  0  0  0  0  0  0  0  0
  -21.3810   -6.4851  -32.8655 C   0  0  2  0  0  0  0  0  0  0  0  0
  -23.4241   -3.1197  -24.1965 C   0  0  1  0  0  0  0  0  0  0  0  0
  -21.0494   -3.5417  -24.0021 C   0  0  2  0  0  0  0  0  0  0  0  0
  -20.1142   -6.8244  -33.6454 C   0  0  1  0  0  0  0  0  0  0  0  0
  -19.8782   -4.9706  -25.8788 C   0  0  0  0  0  0  0  0  0  0  0  0
  -22.6744   -6.8800  -33.5857 C   0  0  0  0  0  0  0  0  0  0  0  0
  -24.4070   -4.2832  -24.0805 C   0  0  0  0  0  0  0  0  0  0  0  0
  -20.0940   -4.0229  -22.9165 C   0  0  0  0  0  0  0  0  0  0  0  0
  -20.1512   -8.0538  -34.5351 C   0  0  0  0  0  0  0  0  0  0  0  0
  -22.8381   -3.3232  -32.0917 N   0  0  0  0  0  0  0  0  0  0  0  0
  -17.5743   -4.1506  -26.2203 N   0  0  0  0  0  0  0  0  0  0  0  0
  -17.8710   -6.2001  -25.1248 N   0  0  0  0  0  0  0  0  0  0  0  0
  -22.0941   -3.7678  -26.2012 N   0  0  3  0  0  0  0  0  0  0  0  0
  -21.2608   -5.0429  -32.7632 N   0  0  0  0  0  0  0  0  0  0  0  0
  -19.3010   -2.6789  -26.4876 O   0  0  0  0  0  0  0  0  0  0  0  0
  -19.9183   -6.8787  -24.3644 O   0  0  0  0  0  0  0  0  0  0  0  0
  -15.7786   -5.5117  -25.7756 O   0  0  0  0  0  0  0  0  0  0  0  0
  -20.1994   -3.4313  -34.1424 O   0  0  0  0  0  0  0  0  0  0  0  0
  -23.2515   -2.7942  -30.8745 O   0  0  0  0  0  0  0  0  0  0  0  0
  -19.8844   -5.6560  -34.4472 O   0  0  0  0  0  0  0  0  0  0  0  0
  -22.3122   -3.3786  -23.3448 O   0  0  0  0  0  0  0  0  0  0  0  0
  -23.5295   -2.1550  -28.1322 F   0  0  0  0  0  0  0  0  0  0  0  0
  -20.2720   -5.8730  -29.8891 H   0  0  0  0  0  0  0  0  0  0  0  0
  -20.7324   -6.6476  -27.0069 H   0  0  0  0  0  0  0  0  0  0  0  0
  -19.2742   -5.9649  -27.7226 H   0  0  0  0  0  0  0  0  0  0  0  0
  -23.9644   -2.8467  -26.2806 H   0  0  0  0  0  0  0  0  0  0  0  0
  -22.7441   -1.7474  -25.6874 H   0  0  0  0  0  0  0  0  0  0  0  0
  -21.7863   -5.3547  -24.9121 H   0  0  0  0  0  0  0  0  0  0  0  0
  -21.3600   -6.9374  -31.8751 H   0  0  0  0  0  0  0  0  0  0  0  0
  -23.9729   -2.2135  -23.7612 H   0  0  0  0  0  0  0  0  0  0  0  0
  -20.7060   -2.5375  -24.3119 H   0  0  0  0  0  0  0  0  0  0  0  0
  -19.2604   -6.9128  -32.9559 H   0  0  0  0  0  0  0  0  0  0  0  0
  -22.6968   -6.4287  -34.5758 H   0  0  0  0  0  0  0  0  0  0  0  0
  -23.5338   -6.5331  -33.0151 H   0  0  0  0  0  0  0  0  0  0  0  0
  -22.7243   -7.9628  -33.6850 H   0  0  0  0  0  0  0  0  0  0  0  0
  -23.9566   -5.1930  -24.4774 H   0  0  0  0  0  0  0  0  0  0  0  0
  -25.3138   -4.0628  -24.6439 H   0  0  0  0  0  0  0  0  0  0  0  0
  -24.6707   -4.4459  -23.0353 H   0  0  0  0  0  0  0  0  0  0  0  0
  -20.3888   -5.0146  -22.5734 H   0  0  0  0  0  0  0  0  0  0  0  0
  -20.1143   -3.3356  -22.0708 H   0  0  0  0  0  0  0  0  0  0  0  0
  -19.0782   -4.0716  -23.3088 H   0  0  0  0  0  0  0  0  0  0  0  0
  -20.9906   -7.9926  -35.2310 H   0  0  0  0  0  0  0  0  0  0  0  0
  -20.2646   -8.9558  -33.9301 H   0  0  0  0  0  0  0  0  0  0  0  0
  -19.2261   -8.1330  -35.1102 H   0  0  0  0  0  0  0  0  0  0  0  0
  -16.9454   -3.4754  -26.6444 H   0  0  0  0  0  0  0  0  0  0  0  0
  -17.4516   -7.0019  -24.6628 H   0  0  0  0  0  0  0  0  0  0  0  0
  1  2  2  0  0  0  0
  1  3  1  0  0  0  0
  2  5  1  0  0  0  0
  2  7  1  0  0  0  0
  3  4  2  0  0  0  0
  3 12  1  0  0  0  0
  4  6  1  0  0  0  0
  4 27  1  0  0  0  0
  5  6  2  0  0  0  0
  5 33  1  0  0  0  0
  6 36  1  0  0  0  0
  7 24  2  0  0  0  0
  7 28  1  0  0  0  0
  8 19  1  0  0  0  0
  8 25  1  0  0  0  0
  8 29  2  0  0  0  0
  9 19  1  0  0  0  0
  9 26  1  0  0  0  0
  9 30  2  0  0  0  0
 10 25  1  0  0  0  0
 10 26  1  0  0  0  0
 10 31  2  0  0  0  0
 11 28  1  0  0  0  0
 11 32  2  0  0  0  0
 11 34  1  0  0  0  0
 12 19  1  0  0  0  0
 13 16  1  0  0  0  0
 13 27  1  0  0  0  0
 14 17  1  0  0  0  0
 14 19  1  0  0  0  0
 14 27  1  0  0  0  0
 15 18  1  0  0  0  0
 15 20  1  0  0  0  0
 15 28  1  0  0  0  0
 16 21  1  0  0  0  0
 16 35  1  0  0  0  0
 17 22  1  0  0  0  0
 17 35  1  0  0  0  0
 18 23  1  0  0  0  0
 18 34  1  0  0  0  0
 24 33  1  0  0  0  0
  1 37  1  0  0  0  0
 12 38  1  0  0  0  0
 12 39  1  0  0  0  0
 13 40  1  0  0  0  0
 13 41  1  0  0  0  0
 14 42  1  0  0  0  0
 15 43  1  0  0  0  0
 16 44  1  0  0  0  0
 17 45  1  0  0  0  0
 18 46  1  0  0  0  0
 20 47  1  0  0  0  0
 20 48  1  0  0  0  0
 20 49  1  0  0  0  0
 21 50  1  0  0  0  0
 21 51  1  0  0  0  0
 21 52  1  0  0  0  0
 22 53  1  0  0  0  0
 22 54  1  0  0  0  0
 22 55  1  0  0  0  0
 23 56  1  0  0  0  0
 23 57  1  0  0  0  0
 23 58  1  0  0  0  0
 25 59  1  0  0  0  0
 26 60  1  0  0  0  0
M  END
> <SMILES>
C[C@@H]1CN2[C@H]([C@H](C)O1)C1(Cc3cc4c(noc4c(c32)F)N2[C@@H](C)[C@@H](C)OC2=O)C(=O)NC(=O)NC1=O

> <FORMATTED_ID>
H3D-006620

> <MOLFORMULA>
C23H24FN5O7

> <Exact Mass>
501.17

> <XLogP>
1.24

> <TPSA_NOPS>
143.6

> <s_m_source_file>
ligprep_h3d.sdf

> <i_m_source_file_index>
1058

> <i_lp_mmshare_version>
55123

> <i_f3d_flags>
0

> <s_epik_input>
Tz1DMVtOSF1DKD1PKVtOSF1DKD1PKUMxMltDQEBIXTNOKFtDSDJdW0NAQEhdKFtDSDNdKU9bQ0BIXTNbQ0gzXSljNGMoW0NIMl0yKVtjSF1jNWMoYzRGKW9uYzVONltDQEBIXShbQ0gzXSlbQ0BASF0oW0NIM10pT0M2PU8=

> <s_epik_cmdline>
J2VwaWtfcHl0aG9uJywgJy1waHQnLCAnMC41JywgJy1waCcsICc3LjUnLCAnLXRuJywgJzgnLCAnLW1hJywgJzUwMCcsICctaW1hZScsICc8aW5maWxlLm1hZT4nLCAnLW9tYWUnLCAnPG91dGZpbGUubWFlPic=

> <r_lp_tautomer_probability>
1

> <r_epik_Ionization_Penalty>
0.369125

> <r_epik_Ionization_Penalty_Charging>
0

> <r_epik_Ionization_Penalty_Neutral>
0.369125

> <r_epik_State_Penalty>
0.366447

> <r_epik_Charging_Adjusted_Penalty>
0.366447

> <i_epik_Tot_Q>
0

> <i_epik_Tot_abs_Q>
0

> <s_epik_Chemistry_Notes>
This compound has an ester and may undergo hydrolysis at high or low pH.

> <s_lp_Force_Field>
S-OPLS

> <r_lp_Energy>
40.5872

> <b_lp_Chiralities_Consistent>
1

> <s_lp_Variant>
ligprep_h3d.sdf:1058-1

> <ROCS_ShapeQuery>
_7L13

> <ROCS_TanimotoCombo>
0.738 

> <ROCS_ShapeTanimoto>
0.601 

> <ROCS_ColorTanimoto>
0.137 

> <ROCS_RefTversky>
0.761 

> <ROCS_RefColorTversky>
0.299 

> <ROCS_RefTverskyCombo>
1.061 

> <ROCS_FitTversky>
0.741 

> <ROCS_FitColorTversky>
0.201 

> <ROCS_FitTverskyCombo>
0.941 

> <ROCS_ColorScore>
-2.769

> <ROCS_Overlap>
1266.428

> <ROCS_Rank>
719                 

$$$$
ligprep_h3d.sdf:626_285
  -OEChem-08212117123D

 62 67  0     1  0  0  0  0  0999 V2000
  -25.5709   -4.5313  -22.4276 C   0  0  0  0  0  0  0  0  0  0  0  0
  -20.6662   -4.6325  -29.5642 C   0  0  0  0  0  0  0  0  0  0  0  0
  -21.5908   -4.1608  -30.4986 C   0  0  0  0  0  0  0  0  0  0  0  0
  -20.9759   -4.5416  -28.1836 C   0  0  0  0  0  0  0  0  0  0  0  0
  -22.1910   -3.9900  -27.7231 C   0  0  0  0  0  0  0  0  0  0  0  0
  -22.7767   -3.6338  -30.0372 C   0  0  0  0  0  0  0  0  0  0  0  0
  -23.1174   -3.5320  -28.6889 C   0  0  0  0  0  0  0  0  0  0  0  0
  -21.6993   -4.0568  -31.8977 C   0  0  0  0  0  0  0  0  0  0  0  0
  -19.5059   -5.9964  -25.0446 C   0  0  0  0  0  0  0  0  0  0  0  0
  -19.5386   -3.4394  -25.4200 C   0  0  0  0  0  0  0  0  0  0  0  0
  -17.4787   -4.6121  -24.6687 C   0  0  0  0  0  0  0  0  0  0  0  0
  -20.6415   -5.7304  -33.3598 C   0  0  0  0  0  0  0  0  0  0  0  0
  -19.9538   -5.0997  -27.2268 C   0  0  0  0  0  0  0  0  0  0  0  0
  -23.3618   -2.9070  -25.8113 C   0  0  0  0  0  0  0  0  0  0  0  0
  -19.2717   -4.3648  -34.5633 C   0  0  0  0  0  0  0  0  0  0  0  0
  -21.7245   -4.7791  -25.4001 C   0  0  2  0  0  0  0  0  0  0  0  0
  -24.2966   -3.5419  -24.7748 C   0  0  1  0  0  0  0  0  0  0  0  0
  -19.6639   -3.6303  -33.2962 C   0  0  2  0  0  0  0  0  0  0  0  0
  -22.1278   -4.3709  -23.9238 C   0  0  2  0  0  0  0  0  0  0  0  0
  -20.1912   -4.7962  -25.7178 C   0  0  0  0  0  0  0  0  0  0  0  0
  -25.4075   -4.3425  -25.4646 C   0  0  0  0  0  0  0  0  0  0  0  0
  -18.5034   -3.5463  -32.3070 C   0  0  0  0  0  0  0  0  0  0  0  0
  -21.4505   -5.2373  -22.8513 C   0  0  0  0  0  0  0  0  0  0  0  0
  -24.1395   -4.2382  -22.4717 C   0  0  0  0  0  0  0  0  0  0  0  0
  -26.7072   -4.7636  -22.3891 N   0  0  0  0  0  0  0  0  0  0  0  0
  -22.8586   -3.5104  -32.2769 N   0  0  0  0  0  0  0  0  0  0  0  0
  -18.1815   -5.8069  -24.6861 N   0  0  0  0  0  0  0  0  0  0  0  0
  -18.2129   -3.4893  -25.0201 N   0  0  0  0  0  0  0  0  0  0  0  0
  -22.4531   -3.9109  -26.3585 N   0  0  3  0  0  0  0  0  0  0  0  0
  -20.7324   -4.4606  -32.7973 N   0  0  0  0  0  0  0  0  0  0  0  0
  -23.6080   -4.4353  -23.8215 N   0  0  1  0  0  0  0  0  0  0  0  0
  -20.0611   -7.0882  -24.9095 O   0  0  0  0  0  0  0  0  0  0  0  0
  -20.1131   -2.3646  -25.5935 O   0  0  0  0  0  0  0  0  0  0  0  0
  -16.2954   -4.5475  -24.3309 O   0  0  0  0  0  0  0  0  0  0  0  0
  -21.2948   -6.7266  -33.0783 O   0  0  0  0  0  0  0  0  0  0  0  0
  -23.5408   -3.2461  -31.0949 O   0  0  0  0  0  0  0  0  0  0  0  0
  -19.6597   -5.7226  -34.3248 O   0  0  0  0  0  0  0  0  0  0  0  0
  -24.2630   -2.9195  -28.3604 F   0  0  0  0  0  0  0  0  0  0  0  0
  -19.7165   -5.0535  -29.8893 H   0  0  0  0  0  0  0  0  0  0  0  0
  -19.9092   -6.2016  -27.3980 H   0  0  0  0  0  0  0  0  0  0  0  0
  -18.9416   -4.7345  -27.5233 H   0  0  0  0  0  0  0  0  0  0  0  0
  -23.9533   -2.4882  -26.6420 H   0  0  0  0  0  0  0  0  0  0  0  0
  -22.8670   -2.0366  -25.3702 H   0  0  0  0  0  0  0  0  0  0  0  0
  -19.8226   -4.0022  -35.4380 H   0  0  0  0  0  0  0  0  0  0  0  0
  -18.1991   -4.3258  -34.7751 H   0  0  0  0  0  0  0  0  0  0  0  0
  -22.0942   -5.7973  -25.5728 H   0  0  0  0  0  0  0  0  0  0  0  0
  -24.8031   -2.7402  -24.1967 H   0  0  0  0  0  0  0  0  0  0  0  0
  -20.0347   -2.6241  -33.5204 H   0  0  0  0  0  0  0  0  0  0  0  0
  -21.8246   -3.3373  -23.7486 H   0  0  0  0  0  0  0  0  0  0  0  0
  -24.9626   -5.1430  -26.0460 H   0  0  0  0  0  0  0  0  0  0  0  0
  -25.9691   -3.6838  -26.1184 H   0  0  0  0  0  0  0  0  0  0  0  0
  -26.0671   -4.7601  -24.7114 H   0  0  0  0  0  0  0  0  0  0  0  0
  -18.1350   -4.5464  -32.0842 H   0  0  0  0  0  0  0  0  0  0  0  0
  -18.8384   -3.0760  -31.3840 H   0  0  0  0  0  0  0  0  0  0  0  0
  -17.6952   -2.9557  -32.7354 H   0  0  0  0  0  0  0  0  0  0  0  0
  -21.7331   -6.2743  -22.9988 H   0  0  0  0  0  0  0  0  0  0  0  0
  -21.7720   -4.9067  -21.8695 H   0  0  0  0  0  0  0  0  0  0  0  0
  -20.3739   -5.1357  -22.9374 H   0  0  0  0  0  0  0  0  0  0  0  0
  -23.9405   -3.2014  -22.1859 H   0  0  0  0  0  0  0  0  0  0  0  0
  -23.5820   -4.8948  -21.7977 H   0  0  0  0  0  0  0  0  0  0  0  0
  -17.6865   -6.6245  -24.3394 H   0  0  0  0  0  0  0  0  0  0  0  0
  -17.7212   -2.5991  -24.9796 H   0  0  0  0  0  0  0  0  0  0  0  0
  1 24  1  0  0  0  0
  1 25  3  0  0  0  0
  2  3  2  0  0  0  0
  2  4  1  0  0  0  0
  3  6  1  0  0  0  0
  3  8  1  0  0  0  0
  4  5  2  0  0  0  0
  4 13  1  0  0  0  0
  5  7  1  0  0  0  0
  5 29  1  0  0  0  0
  6  7  2  0  0  0  0
  6 36  1  0  0  0  0
  7 38  1  0  0  0  0
  8 26  2  0  0  0  0
  8 30  1  0  0  0  0
  9 20  1  0  0  0  0
  9 27  1  0  0  0  0
  9 32  2  0  0  0  0
 10 20  1  0  0  0  0
 10 28  1  0  0  0  0
 10 33  2  0  0  0  0
 11 27  1  0  0  0  0
 11 28  1  0  0  0  0
 11 34  2  0  0  0  0
 12 30  1  0  0  0  0
 12 35  2  0  0  0  0
 12 37  1  0  0  0  0
 13 20  1  0  0  0  0
 14 17  1  0  0  0  0
 14 29  1  0  0  0  0
 15 18  1  0  0  0  0
 15 37  1  0  0  0  0
 16 19  1  0  0  0  0
 16 20  1  0  0  0  0
 16 29  1  0  0  0  0
 17 21  1  0  0  0  0
 17 31  1  0  0  0  0
 18 22  1  0  0  0  0
 18 30  1  0  0  0  0
 19 23  1  0  0  0  0
 19 31  1  0  0  0  0
 24 31  1  0  0  0  0
 26 36  1  0  0  0  0
  2 39  1  0  0  0  0
 13 40  1  0  0  0  0
 13 41  1  0  0  0  0
 14 42  1  0  0  0  0
 14 43  1  0  0  0  0
 15 44  1  0  0  0  0
 15 45  1  0  0  0  0
 16 46  1  0  0  0  0
 17 47  1  0  0  0  0
 18 48  1  0  0  0  0
 19 49  1  0  0  0  0
 21 50  1  0  0  0  0
 21 51  1  0  0  0  0
 21 52  1  0  0  0  0
 22 53  1  0  0  0  0
 22 54  1  0  0  0  0
 22 55  1  0  0  0  0
 23 56  1  0  0  0  0
 23 57  1  0  0  0  0
 23 58  1  0  0  0  0
 24 59  1  0  0  0  0
 24 60  1  0  0  0  0
 27 61  1  0  0  0  0
 28 62  1  0  0  0  0
M  END
> <SMILES>
C[C@H]1COC(=O)N1c1noc2c(c3c(cc12)CC1([C@H]2[C@H](C)N(CC#N)[C@H](C)CN23)C(=O)NC(=O)NC1=O)F

> <FORMATTED_ID>
H3D-004526

> <MOLFORMULA>
C24H24FN7O6

> <Exact Mass>
525.18

> <XLogP>
0.27

> <TPSA_NOPS>
161.4

> <s_m_source_file>
ligprep_h3d.sdf

> <i_m_source_file_index>
626

> <i_lp_mmshare_version>
55123

> <i_f3d_flags>
0

> <s_epik_input>
W0NIM11bQ0BIXTFbQ0gyXU9DKD1PKU4xYzJub2MoYzNGKWMyW2NIXWMoW0NIMl00KWMzTihbQ0gyXVtDQEBIXShbQ0gzXSlOKFtDQEhdNVtDSDNdKVtDSDJdQyNOKVtDQEhdNUM0NkMoPU8pW05IXUMoPU8pW05IXUM2PU8=

> <s_epik_cmdline>
J2VwaWtfcHl0aG9uJywgJy1waHQnLCAnMC41JywgJy1waCcsICc3LjUnLCAnLXRuJywgJzgnLCAnLW1hJywgJzUwMCcsICctaW1hZScsICc8aW5maWxlLm1hZT4nLCAnLW9tYWUnLCAnPG91dGZpbGUubWFlPic=

> <r_lp_tautomer_probability>
1

> <r_epik_Ionization_Penalty>
0.365049

> <r_epik_Ionization_Penalty_Charging>
0

> <r_epik_Ionization_Penalty_Neutral>
0.365049

> <r_epik_State_Penalty>
0.362052

> <r_epik_Charging_Adjusted_Penalty>
0.362052

> <i_epik_Tot_Q>
0

> <i_epik_Tot_abs_Q>
0

> <s_epik_Chemistry_Notes>
This compound has an ester and may undergo hydrolysis at high or low pH.

> <s_lp_Force_Field>
S-OPLS

> <r_lp_Energy>
45.2936

> <b_lp_Chiralities_Consistent>
1

> <s_lp_Variant>
ligprep_h3d.sdf:626-1

> <ROCS_ShapeQuery>
_7L13

> <ROCS_TanimotoCombo>
0.722 

> <ROCS_ShapeTanimoto>
0.579 

> <ROCS_ColorTanimoto>
0.142 

> <ROCS_RefTversky>
0.761 

> <ROCS_RefColorTversky>
0.322 

> <ROCS_RefTverskyCombo>
1.084 

> <ROCS_FitTversky>
0.708 

> <ROCS_FitColorTversky>
0.203 

> <ROCS_FitTverskyCombo>
0.911 

> <ROCS_ColorScore>
-2.996

> <ROCS_Overlap>
1269.714

> <ROCS_Rank>
720                 

$$$$
ligprep_h3d.sdf:1486_1138
  -OEChem-08212117123D

 71 76  0     1  0  0  0  0  0999 V2000
  -19.8390   -3.8116  -32.0439 C   0  0  0  0  0  0  0  0  0  0  0  0
  -20.1395   -6.2045  -31.9002 C   0  0  0  0  0  0  0  0  0  0  0  0
  -19.1554   -3.9698  -33.2493 C   0  0  0  0  0  0  0  0  0  0  0  0
  -19.4559   -6.3628  -33.1057 C   0  0  0  0  0  0  0  0  0  0  0  0
  -17.0454   -5.6541  -26.0240 C   0  0  0  0  0  0  0  0  0  0  0  0
  -23.1159   -4.4320  -28.9222 C   0  0  0  0  0  0  0  0  0  0  0  0
  -21.1184   -4.4637  -25.2781 C   0  0  0  0  0  0  0  0  0  0  0  0
  -17.0096   -4.2502  -26.1232 C   0  0  0  0  0  0  0  0  0  0  0  0
  -21.0606   -4.6160  -27.6903 C   0  0  0  0  0  0  0  0  0  0  0  0
  -20.3310   -4.9290  -31.3692 C   0  0  0  0  0  0  0  0  0  0  0  0
  -21.0433   -4.7641  -30.1129 C   0  0  0  0  0  0  0  0  0  0  0  0
  -18.9639   -5.2454  -33.7803 C   0  0  0  0  0  0  0  0  0  0  0  0
  -22.4218   -4.5916  -30.1241 C   0  0  0  0  0  0  0  0  0  0  0  0
  -20.3623   -4.7765  -28.8990 C   0  0  0  0  0  0  0  0  0  0  0  0
  -22.4603   -4.4406  -27.6940 C   0  0  0  0  0  0  0  0  0  0  0  0
  -20.4002   -4.6245  -26.4543 C   0  0  0  0  0  0  0  0  0  0  0  0
  -18.3763   -5.9727  -26.1412 C   0  0  0  0  0  0  0  0  0  0  0  0
  -22.4846   -4.2985  -25.3823 C   0  0  0  0  0  0  0  0  0  0  0  0
  -18.7654   -7.2869  -36.6784 C   0  0  0  0  0  0  0  0  0  0  0  0
  -20.0671   -7.6784  -25.0906 C   0  0  0  0  0  0  0  0  0  0  0  0
  -18.7011   -8.2607  -24.9028 C   0  0  0  0  0  0  0  0  0  0  0  0
  -20.9378   -6.5550  -37.3181 C   0  0  0  0  0  0  0  0  0  0  0  0
  -20.2044   -5.4113  -36.6460 C   0  0  0  0  0  0  0  0  0  0  0  0
  -18.9790   -7.3756  -26.1019 C   0  0  0  0  0  0  0  0  0  0  0  0
  -19.8153   -7.4906  -37.7542 C   0  0  2  0  0  0  0  0  0  0  0  0
  -23.2027   -4.5713  -31.3998 C   0  0  0  0  0  0  0  0  0  0  0  0
  -18.8727   -4.9661  -28.9660 C   0  0  0  0  0  0  0  0  0  0  0  0
  -18.2327   -5.4146  -35.0691 C   0  0  0  0  0  0  0  0  0  0  0  0
  -24.6181   -4.3675  -24.0903 C   0  0  0  0  0  0  0  0  0  0  0  0
  -25.0130   -4.5557  -22.6369 C   0  0  0  0  0  0  0  0  0  0  0  0
  -18.2214   -3.7140  -26.2906 N   0  0  0  0  0  0  0  0  0  0  0  0
  -23.1599   -4.2842  -26.5543 N   0  0  0  0  0  0  0  0  0  0  0  0
  -19.0312   -4.7865  -26.2976 N   0  0  0  0  0  0  0  0  0  0  0  0
  -19.0425   -6.0580  -36.0804 N   0  0  0  0  0  0  0  0  0  0  0  0
  -23.2134   -4.1344  -24.1782 N   0  0  0  0  0  0  0  0  0  0  0  0
  -17.8581   -8.0647  -36.4252 O   0  0  0  0  0  0  0  0  0  0  0  0
  -20.2614   -8.8208  -37.8191 O   0  0  0  0  0  0  0  0  0  0  0  0
  -26.4187   -4.7523  -22.5512 O   0  0  0  0  0  0  0  0  0  0  0  0
  -19.9797   -2.8108  -31.6425 H   0  0  0  0  0  0  0  0  0  0  0  0
  -20.5176   -7.0853  -31.3865 H   0  0  0  0  0  0  0  0  0  0  0  0
  -18.7745   -3.0938  -33.7675 H   0  0  0  0  0  0  0  0  0  0  0  0
  -19.3117   -7.3603  -33.5124 H   0  0  0  0  0  0  0  0  0  0  0  0
  -16.2187   -6.3358  -25.8866 H   0  0  0  0  0  0  0  0  0  0  0  0
  -24.1967   -4.2979  -28.9460 H   0  0  0  0  0  0  0  0  0  0  0  0
  -20.6277   -4.4669  -24.3087 H   0  0  0  0  0  0  0  0  0  0  0  0
  -16.1510   -3.5956  -26.0808 H   0  0  0  0  0  0  0  0  0  0  0  0
  -20.8650   -8.3471  -25.3901 H   0  0  0  0  0  0  0  0  0  0  0  0
  -20.3761   -6.8912  -24.4135 H   0  0  0  0  0  0  0  0  0  0  0  0
  -18.0902   -7.8647  -24.1004 H   0  0  0  0  0  0  0  0  0  0  0  0
  -18.5760   -9.3227  -25.0756 H   0  0  0  0  0  0  0  0  0  0  0  0
  -21.6097   -7.0573  -36.6108 H   0  0  0  0  0  0  0  0  0  0  0  0
  -21.5448   -6.2219  -38.1656 H   0  0  0  0  0  0  0  0  0  0  0  0
  -19.8671   -4.6588  -37.3654 H   0  0  0  0  0  0  0  0  0  0  0  0
  -20.8047   -4.9412  -35.8626 H   0  0  0  0  0  0  0  0  0  0  0  0
  -19.0597   -7.8747  -27.0655 H   0  0  0  0  0  0  0  0  0  0  0  0
  -19.3989   -7.1855  -38.7207 H   0  0  0  0  0  0  0  0  0  0  0  0
  -23.2725   -3.5477  -31.7835 H   0  0  0  0  0  0  0  0  0  0  0  0
  -22.7288   -5.2008  -32.1618 H   0  0  0  0  0  0  0  0  0  0  0  0
  -24.2164   -4.9596  -31.2474 H   0  0  0  0  0  0  0  0  0  0  0  0
  -18.6327   -6.0314  -28.9205 H   0  0  0  0  0  0  0  0  0  0  0  0
  -18.4709   -4.5484  -29.8933 H   0  0  0  0  0  0  0  0  0  0  0  0
  -18.3798   -4.4529  -28.1354 H   0  0  0  0  0  0  0  0  0  0  0  0
  -17.9109   -4.4442  -35.4723 H   0  0  0  0  0  0  0  0  0  0  0  0
  -17.3257   -6.0213  -34.9412 H   0  0  0  0  0  0  0  0  0  0  0  0
  -24.8562   -5.2555  -24.6844 H   0  0  0  0  0  0  0  0  0  0  0  0
  -25.1348   -3.5023  -24.5164 H   0  0  0  0  0  0  0  0  0  0  0  0
  -24.7614   -3.6596  -22.0612 H   0  0  0  0  0  0  0  0  0  0  0  0
  -24.5088   -5.4195  -22.1914 H   0  0  0  0  0  0  0  0  0  0  0  0
  -22.6934   -3.8416  -23.3763 H   0  0  0  0  0  0  0  0  0  0  0  0
  -20.9299   -8.8755  -38.5279 H   0  0  0  0  0  0  0  0  0  0  0  0
  -26.6278   -4.8678  -21.6104 H   0  0  0  0  0  0  0  0  0  0  0  0
  1  3  1  0  0  0  0
  1 10  2  0  0  0  0
  2  4  2  0  0  0  0
  2 10  1  0  0  0  0
  3 12  2  0  0  0  0
  4 12  1  0  0  0  0
  5  8  1  0  0  0  0
  5 17  2  0  0  0  0
  6 13  2  0  0  0  0
  6 15  1  0  0  0  0
  7 16  1  0  0  0  0
  7 18  2  0  0  0  0
  8 31  2  0  0  0  0
  9 14  1  0  0  0  0
  9 15  1  0  0  0  0
  9 16  2  0  0  0  0
 10 11  1  0  0  0  0
 11 13  1  0  0  0  0
 11 14  2  0  0  0  0
 12 28  1  0  0  0  0
 13 26  1  0  0  0  0
 14 27  1  0  0  0  0
 15 32  2  0  0  0  0
 16 33  1  0  0  0  0
 17 24  1  0  0  0  0
 17 33  1  0  0  0  0
 18 32  1  0  0  0  0
 18 35  1  0  0  0  0
 19 25  1  0  0  0  0
 19 34  1  0  0  0  0
 19 36  2  0  0  0  0
 20 21  1  0  0  0  0
 20 24  1  0  0  0  0
 21 24  1  0  0  0  0
 22 23  1  0  0  0  0
 22 25  1  0  0  0  0
 23 34  1  0  0  0  0
 25 37  1  0  0  0  0
 28 34  1  0  0  0  0
 29 30  1  0  0  0  0
 29 35  1  0  0  0  0
 30 38  1  0  0  0  0
 31 33  1  0  0  0  0
  1 39  1  0  0  0  0
  2 40  1  0  0  0  0
  3 41  1  0  0  0  0
  4 42  1  0  0  0  0
  5 43  1  0  0  0  0
  6 44  1  0  0  0  0
  7 45  1  0  0  0  0
  8 46  1  0  0  0  0
 20 47  1  0  0  0  0
 20 48  1  0  0  0  0
 21 49  1  0  0  0  0
 21 50  1  0  0  0  0
 22 51  1  0  0  0  0
 22 52  1  0  0  0  0
 23 53  1  0  0  0  0
 23 54  1  0  0  0  0
 24 55  1  0  0  0  0
 25 56  1  0  0  0  0
 26 57  1  0  0  0  0
 26 58  1  0  0  0  0
 26 59  1  0  0  0  0
 27 60  1  0  0  0  0
 27 61  1  0  0  0  0
 27 62  1  0  0  0  0
 28 63  1  0  0  0  0
 28 64  1  0  0  0  0
 29 65  1  0  0  0  0
 29 66  1  0  0  0  0
 30 67  1  0  0  0  0
 30 68  1  0  0  0  0
 35 69  1  0  0  0  0
 37 70  1  0  0  0  0
 38 71  1  0  0  0  0
M  END
> <SMILES>
Cc1cc2nc(cc(c2c(c1-c1ccc(cc1)CN1CC[C@H](O)C1=O)C)-n1nccc1C1CC1)NCCO

> <FORMATTED_ID>
H3D-012733

> <MOLFORMULA>
C30H33N5O3

> <Exact Mass>
511.26

> <XLogP>
3.99

> <TPSA_NOPS>
103.5

> <s_m_source_file>
ligprep_h3d.sdf

> <i_m_source_file_index>
1486

> <i_lp_mmshare_version>
55123

> <i_f3d_flags>
0

> <s_epik_input>
W0NIMl0xW0NIMl1bQ0hdMWMyW2NIXVtjSF1ubjItYyhbY0hdYyhuMylbTkhdW0NIMl1bQ0gyXVtPSF0pYyhjMzQpYyhbQ0gzXSljKGMoW0NIM10pW2NIXTQpLWM1W2NIXVtjSF1jKFtjSF1bY0hdNSlbQ0gyXU42W0NIMl1bQ0gyXVtDQEhdKFtPSF0pQzY9Tw==

> <s_epik_cmdline>
J2VwaWtfcHl0aG9uJywgJy1waHQnLCAnMC41JywgJy1waCcsICc3LjUnLCAnLXRuJywgJzgnLCAnLW1hJywgJzUwMCcsICctaW1hZScsICc8aW5maWxlLm1hZT4nLCAnLW9tYWUnLCAnPG91dGZpbGUubWFlPic=

> <r_lp_tautomer_probability>
1

> <r_epik_Ionization_Penalty>
0.00499163

> <r_epik_Ionization_Penalty_Charging>
0

> <r_epik_Ionization_Penalty_Neutral>
0.00499163

> <r_epik_State_Penalty>
-0

> <r_epik_Charging_Adjusted_Penalty>
0

> <i_epik_Tot_Q>
0

> <i_epik_Tot_abs_Q>
0

> <s_lp_Force_Field>
S-OPLS

> <r_lp_Energy>
57.4594

> <b_lp_Chiralities_Consistent>
1

> <s_lp_Variant>
ligprep_h3d.sdf:1486-1

> <ROCS_ShapeQuery>
_7L13

> <ROCS_TanimotoCombo>
0.668 

> <ROCS_ShapeTanimoto>
0.588 

> <ROCS_ColorTanimoto>
0.079 

> <ROCS_RefTversky>
0.761 

> <ROCS_RefColorTversky>
0.175 

> <ROCS_RefTverskyCombo>
0.937 

> <ROCS_FitTversky>
0.721 

> <ROCS_FitColorTversky>
0.126 

> <ROCS_FitTverskyCombo>
0.848 

> <ROCS_ColorScore>
-1.614

> <ROCS_Overlap>
1268.244

> <ROCS_Rank>
721                 

$$$$
ligprep_h3d.sdf:859_265
  -OEChem-08212117123D

 71 76  0     0  0  0  0  0  0999 V2000
  -16.9063   -5.5114  -25.6640 C   0  0  0  0  0  0  0  0  0  0  0  0
  -22.6640   -4.6564  -29.2521 C   0  0  0  0  0  0  0  0  0  0  0  0
  -21.0569   -4.3688  -25.4304 C   0  0  0  0  0  0  0  0  0  0  0  0
  -16.8881   -4.1187  -25.8686 C   0  0  0  0  0  0  0  0  0  0  0  0
  -18.9250   -5.2774  -36.1274 C   0  0  0  0  0  0  0  0  0  0  0  0
  -20.7459   -4.7017  -27.8047 C   0  0  0  0  0  0  0  0  0  0  0  0
  -21.8462   -4.8911  -30.3602 C   0  0  0  0  0  0  0  0  0  0  0  0
  -19.9232   -4.9378  -28.9192 C   0  0  0  0  0  0  0  0  0  0  0  0
  -22.1399   -4.5578  -27.9661 C   0  0  0  0  0  0  0  0  0  0  0  0
  -20.2179   -4.6023  -26.5104 C   0  0  0  0  0  0  0  0  0  0  0  0
  -20.4741   -5.0321  -30.1940 C   0  0  0  0  0  0  0  0  0  0  0  0
  -18.8360   -5.9977  -34.9627 C   0  0  0  0  0  0  0  0  0  0  0  0
  -18.2116   -5.8746  -25.8894 C   0  0  0  0  0  0  0  0  0  0  0  0
  -22.4070   -4.2419  -25.6870 C   0  0  0  0  0  0  0  0  0  0  0  0
  -18.1009   -6.7247  -32.5558 C   0  0  0  0  0  0  0  0  0  0  0  0
  -18.3116   -4.3031  -33.1175 C   0  0  0  0  0  0  0  0  0  0  0  0
  -19.3886   -6.6442  -31.7274 C   0  0  0  0  0  0  0  0  0  0  0  0
  -19.6400   -4.2494  -32.3656 C   0  0  0  0  0  0  0  0  0  0  0  0
  -24.4832   -3.2450  -24.7610 C   0  0  0  0  0  0  0  0  0  0  0  0
  -23.1981   -4.8203  -23.3846 C   0  0  0  0  0  0  0  0  0  0  0  0
  -25.6725   -4.2151  -24.7180 C   0  0  0  0  0  0  0  0  0  0  0  0
  -24.3926   -5.7778  -23.3692 C   0  0  0  0  0  0  0  0  0  0  0  0
  -18.0230   -5.7000  -33.7059 C   0  0  0  0  0  0  0  0  0  0  0  0
  -22.4784   -4.9845  -31.7113 C   0  0  0  0  0  0  0  0  0  0  0  0
  -18.4332   -5.1019  -28.8273 C   0  0  0  0  0  0  0  0  0  0  0  0
  -18.8635   -7.1977  -25.8312 C   0  0  0  0  0  0  0  0  0  0  0  0
  -26.7984   -5.9377  -23.4584 C   0  0  0  0  0  0  0  0  0  0  0  0
  -18.0867   -3.6304  -26.1989 N   0  0  0  0  0  0  0  0  0  0  0  0
  -22.9566   -4.3310  -26.9199 N   0  0  0  0  0  0  0  0  0  0  0  0
  -19.6233   -7.1121  -35.0505 N   0  0  0  0  0  0  0  0  0  0  0  0
  -20.2043   -7.1085  -36.2453 N   0  0  0  0  0  0  0  0  0  0  0  0
  -19.7841   -6.0077  -36.8895 N   0  0  0  0  0  0  0  0  0  0  0  0
  -18.8701   -4.7223  -26.2036 N   0  0  0  0  0  0  0  0  0  0  0  0
  -19.6604   -5.2666  -31.3086 N   0  0  0  0  0  0  0  0  0  0  0  0
  -23.2431   -4.0097  -24.6022 N   0  0  0  0  0  0  0  0  0  0  0  0
  -25.6545   -5.0276  -23.4901 N   0  0  0  0  0  0  0  0  0  0  0  0
  -16.0862   -6.1595  -25.3914 H   0  0  0  0  0  0  0  0  0  0  0  0
  -23.7380   -4.5477  -29.3980 H   0  0  0  0  0  0  0  0  0  0  0  0
  -20.6699   -4.2885  -24.4184 H   0  0  0  0  0  0  0  0  0  0  0  0
  -16.0514   -3.4394  -25.7910 H   0  0  0  0  0  0  0  0  0  0  0  0
  -18.4777   -4.3558  -36.4707 H   0  0  0  0  0  0  0  0  0  0  0  0
  -17.2308   -6.5941  -31.8798 H   0  0  0  0  0  0  0  0  0  0  0  0
  -17.9927   -7.7541  -32.9591 H   0  0  0  0  0  0  0  0  0  0  0  0
  -18.3146   -3.5488  -33.9217 H   0  0  0  0  0  0  0  0  0  0  0  0
  -17.4973   -4.0112  -32.4358 H   0  0  0  0  0  0  0  0  0  0  0  0
  -20.2205   -7.0369  -32.3350 H   0  0  0  0  0  0  0  0  0  0  0  0
  -19.3040   -7.2960  -30.8417 H   0  0  0  0  0  0  0  0  0  0  0  0
  -19.7837   -3.2526  -31.9265 H   0  0  0  0  0  0  0  0  0  0  0  0
  -20.4582   -4.4158  -33.0787 H   0  0  0  0  0  0  0  0  0  0  0  0
  -24.4891   -2.7228  -25.7173 H   0  0  0  0  0  0  0  0  0  0  0  0
  -24.5752   -2.5102  -23.9606 H   0  0  0  0  0  0  0  0  0  0  0  0
  -23.2281   -4.1737  -22.5031 H   0  0  0  0  0  0  0  0  0  0  0  0
  -22.2760   -5.4052  -23.3497 H   0  0  0  0  0  0  0  0  0  0  0  0
  -26.5942   -3.6219  -24.7555 H   0  0  0  0  0  0  0  0  0  0  0  0
  -25.6609   -4.8520  -25.6126 H   0  0  0  0  0  0  0  0  0  0  0  0
  -24.2909   -6.5109  -24.1765 H   0  0  0  0  0  0  0  0  0  0  0  0
  -24.3780   -6.3253  -22.4224 H   0  0  0  0  0  0  0  0  0  0  0  0
  -16.9369   -5.6715  -34.0499 H   0  0  0  0  0  0  0  0  0  0  0  0
  -22.5188   -3.9948  -32.1798 H   0  0  0  0  0  0  0  0  0  0  0  0
  -21.9142   -5.6595  -32.3659 H   0  0  0  0  0  0  0  0  0  0  0  0
  -23.4982   -5.3823  -31.6437 H   0  0  0  0  0  0  0  0  0  0  0  0
  -18.1840   -6.1559  -28.6781 H   0  0  0  0  0  0  0  0  0  0  0  0
  -17.9466   -4.7465  -29.7404 H   0  0  0  0  0  0  0  0  0  0  0  0
  -18.0293   -4.5187  -27.9943 H   0  0  0  0  0  0  0  0  0  0  0  0
  -19.2522   -7.4049  -24.8208 H   0  0  0  0  0  0  0  0  0  0  0  0
  -19.7078   -7.2744  -26.5374 H   0  0  0  0  0  0  0  0  0  0  0  0
  -18.1690   -8.0131  -26.0970 H   0  0  0  0  0  0  0  0  0  0  0  0
  -26.7671   -6.5349  -22.5352 H   0  0  0  0  0  0  0  0  0  0  0  0
  -27.7311   -5.3552  -23.4868 H   0  0  0  0  0  0  0  0  0  0  0  0
  -26.7579   -6.6077  -24.3299 H   0  0  0  0  0  0  0  0  0  0  0  0
  -20.1204   -5.8262  -37.8274 H   0  0  0  0  0  0  0  0  0  0  0  0
  1  4  1  0  0  0  0
  1 13  2  0  0  0  0
  2  7  2  0  0  0  0
  2  9  1  0  0  0  0
  3 10  1  0  0  0  0
  3 14  2  0  0  0  0
  4 28  2  0  0  0  0
  5 12  2  0  0  0  0
  5 32  1  0  0  0  0
  6  8  1  0  0  0  0
  6  9  1  0  0  0  0
  6 10  2  0  0  0  0
  7 11  1  0  0  0  0
  7 24  1  0  0  0  0
  8 11  2  0  0  0  0
  8 25  1  0  0  0  0
  9 29  2  0  0  0  0
 10 33  1  0  0  0  0
 11 34  1  0  0  0  0
 12 23  1  0  0  0  0
 12 30  1  0  0  0  0
 13 26  1  0  0  0  0
 13 33  1  0  0  0  0
 14 29  1  0  0  0  0
 14 35  1  0  0  0  0
 15 17  1  0  0  0  0
 15 23  1  0  0  0  0
 16 18  1  0  0  0  0
 16 23  1  0  0  0  0
 17 34  1  0  0  0  0
 18 34  1  0  0  0  0
 19 21  1  0  0  0  0
 19 35  1  0  0  0  0
 20 22  1  0  0  0  0
 20 35  1  0  0  0  0
 21 36  1  0  0  0  0
 22 36  1  0  0  0  0
 27 36  1  0  0  0  0
 28 33  1  0  0  0  0
 30 31  2  0  0  0  0
 31 32  1  0  0  0  0
  1 37  1  0  0  0  0
  2 38  1  0  0  0  0
  3 39  1  0  0  0  0
  4 40  1  0  0  0  0
  5 41  1  0  0  0  0
 15 42  1  0  0  0  0
 15 43  1  0  0  0  0
 16 44  1  0  0  0  0
 16 45  1  0  0  0  0
 17 46  1  0  0  0  0
 17 47  1  0  0  0  0
 18 48  1  0  0  0  0
 18 49  1  0  0  0  0
 19 50  1  0  0  0  0
 19 51  1  0  0  0  0
 20 52  1  0  0  0  0
 20 53  1  0  0  0  0
 21 54  1  0  0  0  0
 21 55  1  0  0  0  0
 22 56  1  0  0  0  0
 22 57  1  0  0  0  0
 23 58  1  0  0  0  0
 24 59  1  0  0  0  0
 24 60  1  0  0  0  0
 24 61  1  0  0  0  0
 25 62  1  0  0  0  0
 25 63  1  0  0  0  0
 25 64  1  0  0  0  0
 26 65  1  0  0  0  0
 26 66  1  0  0  0  0
 26 67  1  0  0  0  0
 27 68  1  0  0  0  0
 27 69  1  0  0  0  0
 27 70  1  0  0  0  0
 32 71  1  0  0  0  0
M  END
> <SMILES>
CN1CCN(CC1)c1cc(c2c(c(c(cc2n1)C)N1CCC(CC1)c1cnn[nH]1)C)-n1nccc1C

> <FORMATTED_ID>
H3D-005681

> <MOLFORMULA>
C27H35N9

> <Exact Mass>
485.3

> <XLogP>
3.41

> <TPSA_NOPS>
82

> <s_m_source_file>
ligprep_h3d.sdf

> <i_m_source_file_index>
859

> <i_lp_mmshare_version>
55123

> <i_f3d_flags>
0

> <s_epik_input>
W0NIM11jMVtjSF1bY0hdbm4xLWMyW2NIXWMoTihbQ0gyXVtDSDJdMylbQ0gyXVtDSDJdTjNbQ0gzXSluYyhjMjQpW2NIXWMoW0NIM10pYyhjNFtDSDNdKU41W0NIMl1bQ0gyXVtDSF0oW0NIMl1bQ0gyXTUpYzZbY0hdbm5bbkhdNg==

> <s_epik_cmdline>
J2VwaWtfcHl0aG9uJywgJy1waHQnLCAnMC41JywgJy1waCcsICc3LjUnLCAnLXRuJywgJzgnLCAnLW1hJywgJzUwMCcsICctaW1hZScsICc8aW5maWxlLm1hZT4nLCAnLW9tYWUnLCAnPG91dGZpbGUubWFlPic=

> <r_lp_tautomer_probability>
0.173826

> <r_epik_Ionization_Penalty>
0.734719

> <r_epik_Ionization_Penalty_Charging>
0

> <r_epik_Ionization_Penalty_Neutral>
0.734719

> <r_epik_State_Penalty>
0.41068

> <r_epik_Charging_Adjusted_Penalty>
0.41068

> <i_epik_Tot_Q>
0

> <i_epik_Tot_abs_Q>
0

> <s_lp_Force_Field>
S-OPLS

> <r_lp_Energy>
76.8259

> <b_lp_Chiralities_Consistent>
1

> <s_lp_Variant>
ligprep_h3d.sdf:859-2

> <ROCS_ShapeQuery>
_7L13

> <ROCS_TanimotoCombo>
0.709 

> <ROCS_ShapeTanimoto>
0.607 

> <ROCS_ColorTanimoto>
0.102 

> <ROCS_RefTversky>
0.761 

> <ROCS_RefColorTversky>
0.216 

> <ROCS_RefTverskyCombo>
0.977 

> <ROCS_FitTversky>
0.750 

> <ROCS_FitColorTversky>
0.162 

> <ROCS_FitTverskyCombo>
0.912 

> <ROCS_ColorScore>
-1.978

> <ROCS_Overlap>
1265.331

> <ROCS_Rank>
722                 

$$$$
ligprep_h3d.sdf:926_1859
  -OEChem-08212117123D

 64 67  0     0  0  0  0  0  0999 V2000
  -16.7390   -6.2329  -26.2863 C   0  0  0  0  0  0  0  0  0  0  0  0
  -22.6736   -4.2517  -29.0486 C   0  0  0  0  0  0  0  0  0  0  0  0
  -20.6150   -4.5438  -25.4503 C   0  0  0  0  0  0  0  0  0  0  0  0
  -16.5343   -4.8438  -26.3881 C   0  0  0  0  0  0  0  0  0  0  0  0
  -20.6314   -4.6984  -27.8630 C   0  0  0  0  0  0  0  0  0  0  0  0
  -20.6875   -4.8435  -30.2852 C   0  0  0  0  0  0  0  0  0  0  0  0
  -22.0327   -4.4965  -30.2656 C   0  0  0  0  0  0  0  0  0  0  0  0
  -19.9866   -4.9447  -29.0870 C   0  0  0  0  0  0  0  0  0  0  0  0
  -21.9970   -4.3458  -27.8355 C   0  0  0  0  0  0  0  0  0  0  0  0
  -19.9499   -4.7931  -26.6421 C   0  0  0  0  0  0  0  0  0  0  0  0
  -21.9510   -4.2055  -25.5239 C   0  0  0  0  0  0  0  0  0  0  0  0
  -18.1011   -6.3866  -26.3728 C   0  0  0  0  0  0  0  0  0  0  0  0
  -19.3691   -4.0508  -32.3374 C   0  0  0  0  0  0  0  0  0  0  0  0
  -20.0189   -6.3562  -32.0584 C   0  0  0  0  0  0  0  0  0  0  0  0
  -18.7720   -4.3275  -33.5013 C   0  0  0  0  0  0  0  0  0  0  0  0
  -20.0229   -5.0993  -31.5787 C   0  0  0  0  0  0  0  0  0  0  0  0
  -19.3562   -6.6818  -33.3596 C   0  0  0  0  0  0  0  0  0  0  0  0
  -22.7057   -3.9319  -24.3130 C   0  0  0  0  0  0  0  0  0  0  0  0
  -19.1013   -5.9829  -36.3902 C   0  0  0  0  0  0  0  0  0  0  0  0
  -22.8327   -4.3737  -31.5235 C   0  0  0  0  0  0  0  0  0  0  0  0
  -18.5358   -5.3238  -29.1879 C   0  0  0  0  0  0  0  0  0  0  0  0
  -18.9342   -7.6044  -26.3315 C   0  0  0  0  0  0  0  0  0  0  0  0
  -19.3989   -7.1389  -38.5786 C   0  0  0  0  0  0  0  0  0  0  0  0
  -18.0774   -5.8110  -35.2974 C   0  0  0  0  0  0  0  0  0  0  0  0
  -24.9623   -3.9900  -23.2197 C   0  0  0  0  0  0  0  0  0  0  0  0
  -26.0854   -5.0108  -23.2371 C   0  0  0  0  0  0  0  0  0  0  0  0
  -17.6751   -4.1635  -26.5289 N   0  0  0  0  0  0  0  0  0  0  0  0
  -22.6452   -4.1033  -26.6805 N   0  0  0  0  0  0  0  0  0  0  0  0
  -18.6097   -5.1292  -26.5161 N   0  0  0  0  0  0  0  0  0  0  0  0
  -18.7531   -5.6080  -34.0215 N   0  0  0  0  0  0  0  0  0  0  0  0
  -24.0746   -4.2269  -24.3353 N   0  0  0  0  0  0  0  0  0  0  0  0
  -18.6257   -6.8004  -37.4055 N   0  0  0  0  0  0  0  0  0  0  0  0
  -19.3791   -7.8447  -33.7602 O   0  0  0  0  0  0  0  0  0  0  0  0
  -22.1467   -3.4374  -23.3171 O   0  0  0  0  0  0  0  0  0  0  0  0
  -20.2117   -5.4589  -36.3643 O   0  0  0  0  0  0  0  0  0  0  0  0
  -26.9361   -4.7961  -22.1181 O   0  0  0  0  0  0  0  0  0  0  0  0
  -16.0004   -7.0122  -26.1672 H   0  0  0  0  0  0  0  0  0  0  0  0
  -23.7287   -3.9805  -29.0484 H   0  0  0  0  0  0  0  0  0  0  0  0
  -20.1101   -4.6104  -24.4909 H   0  0  0  0  0  0  0  0  0  0  0  0
  -15.6014   -4.2991  -26.3659 H   0  0  0  0  0  0  0  0  0  0  0  0
  -19.3725   -3.0389  -31.9446 H   0  0  0  0  0  0  0  0  0  0  0  0
  -20.4911   -7.1824  -31.5331 H   0  0  0  0  0  0  0  0  0  0  0  0
  -18.2786   -3.5551  -34.0807 H   0  0  0  0  0  0  0  0  0  0  0  0
  -22.7792   -3.3489  -31.9064 H   0  0  0  0  0  0  0  0  0  0  0  0
  -22.4607   -5.0573  -32.2954 H   0  0  0  0  0  0  0  0  0  0  0  0
  -23.8843   -4.6291  -31.3481 H   0  0  0  0  0  0  0  0  0  0  0  0
  -18.4333   -6.4112  -29.1472 H   0  0  0  0  0  0  0  0  0  0  0  0
  -18.1048   -4.9591  -30.1245 H   0  0  0  0  0  0  0  0  0  0  0  0
  -17.9621   -4.8800  -28.3693 H   0  0  0  0  0  0  0  0  0  0  0  0
  -19.2330   -7.8464  -25.2984 H   0  0  0  0  0  0  0  0  0  0  0  0
  -19.8547   -7.4966  -26.9301 H   0  0  0  0  0  0  0  0  0  0  0  0
  -18.4051   -8.4817  -26.7416 H   0  0  0  0  0  0  0  0  0  0  0  0
  -19.9759   -8.0554  -38.3862 H   0  0  0  0  0  0  0  0  0  0  0  0
  -20.0881   -6.3145  -38.8138 H   0  0  0  0  0  0  0  0  0  0  0  0
  -18.7212   -7.3042  -39.4291 H   0  0  0  0  0  0  0  0  0  0  0  0
  -17.4513   -6.7061  -35.2350 H   0  0  0  0  0  0  0  0  0  0  0  0
  -17.4476   -4.9428  -35.5125 H   0  0  0  0  0  0  0  0  0  0  0  0
  -25.3517   -2.9702  -23.3018 H   0  0  0  0  0  0  0  0  0  0  0  0
  -24.3815   -4.0785  -22.2967 H   0  0  0  0  0  0  0  0  0  0  0  0
  -25.6740   -6.0220  -23.1596 H   0  0  0  0  0  0  0  0  0  0  0  0
  -26.6820   -4.9373  -24.1522 H   0  0  0  0  0  0  0  0  0  0  0  0
  -24.4933   -4.5699  -25.1936 H   0  0  0  0  0  0  0  0  0  0  0  0
  -17.6872   -7.1799  -37.3199 H   0  0  0  0  0  0  0  0  0  0  0  0
  -27.6367   -5.4662  -22.1671 H   0  0  0  0  0  0  0  0  0  0  0  0
  1  4  1  0  0  0  0
  1 12  2  0  0  0  0
  2  7  1  0  0  0  0
  2  9  2  0  0  0  0
  3 10  2  0  0  0  0
  3 11  1  0  0  0  0
  4 27  2  0  0  0  0
  5  8  2  0  0  0  0
  5  9  1  0  0  0  0
  5 10  1  0  0  0  0
  6  7  2  0  0  0  0
  6  8  1  0  0  0  0
  6 16  1  0  0  0  0
  7 20  1  0  0  0  0
  8 21  1  0  0  0  0
  9 28  1  0  0  0  0
 10 29  1  0  0  0  0
 11 18  1  0  0  0  0
 11 28  2  0  0  0  0
 12 22  1  0  0  0  0
 12 29  1  0  0  0  0
 13 15  2  0  0  0  0
 13 16  1  0  0  0  0
 14 16  2  0  0  0  0
 14 17  1  0  0  0  0
 15 30  1  0  0  0  0
 17 30  1  0  0  0  0
 17 33  2  0  0  0  0
 18 31  1  0  0  0  0
 18 34  2  0  0  0  0
 19 24  1  0  0  0  0
 19 32  1  0  0  0  0
 19 35  2  0  0  0  0
 23 32  1  0  0  0  0
 24 30  1  0  0  0  0
 25 26  1  0  0  0  0
 25 31  1  0  0  0  0
 26 36  1  0  0  0  0
 27 29  1  0  0  0  0
  1 37  1  0  0  0  0
  2 38  1  0  0  0  0
  3 39  1  0  0  0  0
  4 40  1  0  0  0  0
 13 41  1  0  0  0  0
 14 42  1  0  0  0  0
 15 43  1  0  0  0  0
 20 44  1  0  0  0  0
 20 45  1  0  0  0  0
 20 46  1  0  0  0  0
 21 47  1  0  0  0  0
 21 48  1  0  0  0  0
 21 49  1  0  0  0  0
 22 50  1  0  0  0  0
 22 51  1  0  0  0  0
 22 52  1  0  0  0  0
 23 53  1  0  0  0  0
 23 54  1  0  0  0  0
 23 55  1  0  0  0  0
 24 56  1  0  0  0  0
 24 57  1  0  0  0  0
 25 58  1  0  0  0  0
 25 59  1  0  0  0  0
 26 60  1  0  0  0  0
 26 61  1  0  0  0  0
 31 62  1  0  0  0  0
 32 63  1  0  0  0  0
 36 64  1  0  0  0  0
M  END
> <SMILES>
CNC(=O)CN1C=CC(=CC1=O)c1c(cc2nc(cc(c2c1C)-n1nccc1C)C(=O)NCCO)C

> <FORMATTED_ID>
H3D-005886

> <MOLFORMULA>
C26H28N6O4

> <Exact Mass>
488.22

> <XLogP>
1.22

> <TPSA_NOPS>
129.4

> <s_m_source_file>
ligprep_h3d.sdf

> <i_m_source_file_index>
926

> <i_lp_mmshare_version>
55123

> <i_f3d_flags>
0

> <s_epik_input>
W0NIM11bTkhdQyg9TylbQ0gyXW4xW2NIXVtjSF1jKFtjSF1jMT1PKS1jKGMoW2NIXTIpW0NIM10pYyhbQ0gzXSljKGMyMyljKC1uNG5bY0hdW2NIXWM0W0NIM10pW2NIXWMobjMpQyg9TylbTkhdW0NIMl1bQ0gyXVtPSF0=

> <s_epik_cmdline>
J2VwaWtfcHl0aG9uJywgJy1waHQnLCAnMC41JywgJy1waCcsICc3LjUnLCAnLXRuJywgJzgnLCAnLW1hJywgJzUwMCcsICctaW1hZScsICc8aW5maWxlLm1hZT4nLCAnLW9tYWUnLCAnPG91dGZpbGUubWFlPic=

> <r_lp_tautomer_probability>
1

> <r_epik_Ionization_Penalty>
1.6396e-05

> <r_epik_Ionization_Penalty_Charging>
6.40899e-08

> <r_epik_Ionization_Penalty_Neutral>
1.63319e-05

> <r_epik_State_Penalty>
-0

> <r_epik_Charging_Adjusted_Penalty>
6.40899e-08

> <i_epik_Tot_Q>
0

> <i_epik_Tot_abs_Q>
0

> <s_lp_Force_Field>
S-OPLS

> <r_lp_Energy>
65.46

> <b_lp_Chiralities_Consistent>
1

> <s_lp_Variant>
ligprep_h3d.sdf:926-1

> <ROCS_ShapeQuery>
_7L13

> <ROCS_TanimotoCombo>
0.765 

> <ROCS_ShapeTanimoto>
0.613 

> <ROCS_ColorTanimoto>
0.151 

> <ROCS_RefTversky>
0.761 

> <ROCS_RefColorTversky>
0.314 

> <ROCS_RefTverskyCombo>
1.075 

> <ROCS_FitTversky>
0.760 

> <ROCS_FitColorTversky>
0.226 

> <ROCS_FitTverskyCombo>
0.985 

> <ROCS_ColorScore>
-2.889

> <ROCS_Overlap>
1264.381

> <ROCS_Rank>
723                 

$$$$
ligprep_h3d.sdf:2555_1693
  -OEChem-08212117123D

 65 68  0     0  0  0  0  0  0999 V2000
  -25.4210   -3.9320  -23.4597 C   0  0  0  0  0  0  0  0  0  0  0  0
  -24.5970   -4.9208  -22.9173 C   0  0  0  0  0  0  0  0  0  0  0  0
  -19.9768   -4.6461  -26.3813 C   0  0  0  0  0  0  0  0  0  0  0  0
  -19.2421   -6.5384  -25.0712 C   0  0  0  0  0  0  0  0  0  0  0  0
  -18.7133   -4.0688  -26.2562 C   0  0  0  0  0  0  0  0  0  0  0  0
  -17.9785   -5.9611  -24.9461 C   0  0  0  0  0  0  0  0  0  0  0  0
  -25.2794   -3.5262  -24.7927 C   0  0  0  0  0  0  0  0  0  0  0  0
  -23.6039   -5.5392  -23.6842 C   0  0  0  0  0  0  0  0  0  0  0  0
  -22.5219   -3.1526  -32.1081 C   0  0  0  0  0  0  0  0  0  0  0  0
  -23.2814   -3.3639  -29.8244 C   0  0  0  0  0  0  0  0  0  0  0  0
  -20.2413   -5.8809  -25.7888 C   0  0  0  0  0  0  0  0  0  0  0  0
  -17.7141   -4.7263  -25.5386 C   0  0  0  0  0  0  0  0  0  0  0  0
  -23.3813   -2.7650  -31.0802 C   0  0  0  0  0  0  0  0  0  0  0  0
  -21.5626   -4.1393  -31.8803 C   0  0  0  0  0  0  0  0  0  0  0  0
  -24.2867   -4.1367  -25.5776 C   0  0  0  0  0  0  0  0  0  0  0  0
  -23.4810   -5.1192  -25.0090 C   0  0  0  0  0  0  0  0  0  0  0  0
  -22.3221   -4.3506  -29.5966 C   0  0  0  0  0  0  0  0  0  0  0  0
  -21.4627   -4.7383  -30.6245 C   0  0  0  0  0  0  0  0  0  0  0  0
  -22.9544   -4.7564  -27.1269 C   0  0  0  0  0  0  0  0  0  0  0  0
  -24.4079   -1.7115  -31.3255 C   0  0  0  0  0  0  0  0  0  0  0  0
  -20.1619   -7.8672  -34.7808 C   0  0  0  0  0  0  0  0  0  0  0  0
  -20.2555   -5.5209  -35.6995 C   0  0  0  0  0  0  0  0  0  0  0  0
  -18.4366   -6.1681  -34.0777 C   0  0  0  0  0  0  0  0  0  0  0  0
  -21.6041   -6.5046  -25.9237 C   0  0  0  0  0  0  0  0  0  0  0  0
  -20.6474   -4.5425  -32.9988 C   0  0  0  0  0  0  0  0  0  0  0  0
  -16.3627   -4.1092  -25.4065 C   0  0  0  0  0  0  0  0  0  0  0  0
  -19.8887   -6.3907  -34.4979 C   0  0  0  0  0  0  0  0  0  0  0  0
  -23.9450   -3.9250  -26.8936 N   0  0  0  0  0  0  0  0  0  0  0  0
  -22.6383   -5.4976  -26.0225 N   0  0  0  0  0  0  0  0  0  0  0  0
  -22.2336   -4.9484  -28.3201 N   0  0  0  0  0  0  0  0  0  0  0  0
  -20.7615   -5.9777  -33.3542 N   0  3  0  0  0  0  0  0  0  0  0  0
  -20.5240   -5.7039  -30.4055 O   0  0  0  0  0  0  0  0  0  0  0  0
  -16.2477   -2.9030  -26.0374 F   0  0  0  0  0  0  0  0  0  0  0  0
  -15.9946   -3.8708  -24.1130 F   0  0  0  0  0  0  0  0  0  0  0  0
  -15.3747   -4.8918  -25.9301 F   0  0  0  0  0  0  0  0  0  0  0  0
  -26.1840   -3.4700  -22.8384 H   0  0  0  0  0  0  0  0  0  0  0  0
  -24.7296   -5.2165  -21.8795 H   0  0  0  0  0  0  0  0  0  0  0  0
  -20.7494   -4.1265  -26.9421 H   0  0  0  0  0  0  0  0  0  0  0  0
  -19.4392   -7.5015  -24.6076 H   0  0  0  0  0  0  0  0  0  0  0  0
  -18.5160   -3.1074  -26.7226 H   0  0  0  0  0  0  0  0  0  0  0  0
  -17.2055   -6.4800  -24.3853 H   0  0  0  0  0  0  0  0  0  0  0  0
  -25.9244   -2.7570  -25.2050 H   0  0  0  0  0  0  0  0  0  0  0  0
  -22.9652   -6.3068  -23.2621 H   0  0  0  0  0  0  0  0  0  0  0  0
  -22.6008   -2.6857  -33.0871 H   0  0  0  0  0  0  0  0  0  0  0  0
  -23.9531   -3.0605  -29.0244 H   0  0  0  0  0  0  0  0  0  0  0  0
  -25.3430   -2.1640  -31.6778 H   0  0  0  0  0  0  0  0  0  0  0  0
  -24.6201   -1.1413  -30.4117 H   0  0  0  0  0  0  0  0  0  0  0  0
  -24.0657   -0.9892  -32.0781 H   0  0  0  0  0  0  0  0  0  0  0  0
  -19.8999   -8.4941  -33.9208 H   0  0  0  0  0  0  0  0  0  0  0  0
  -21.2222   -8.0331  -35.0019 H   0  0  0  0  0  0  0  0  0  0  0  0
  -19.5834   -8.2232  -35.6409 H   0  0  0  0  0  0  0  0  0  0  0  0
  -20.0608   -4.4609  -35.5002 H   0  0  0  0  0  0  0  0  0  0  0  0
  -21.3159   -5.6217  -35.9574 H   0  0  0  0  0  0  0  0  0  0  0  0
  -19.6708   -5.8059  -36.5812 H   0  0  0  0  0  0  0  0  0  0  0  0
  -18.2369   -5.1099  -33.8739 H   0  0  0  0  0  0  0  0  0  0  0  0
  -18.2025   -6.7315  -33.1674 H   0  0  0  0  0  0  0  0  0  0  0  0
  -17.7400   -6.4941  -34.8586 H   0  0  0  0  0  0  0  0  0  0  0  0
  -21.6610   -7.1434  -26.8135 H   0  0  0  0  0  0  0  0  0  0  0  0
  -21.8325   -7.1472  -25.0646 H   0  0  0  0  0  0  0  0  0  0  0  0
  -20.8624   -3.9747  -33.9104 H   0  0  0  0  0  0  0  0  0  0  0  0
  -19.5990   -4.3660  -32.7352 H   0  0  0  0  0  0  0  0  0  0  0  0
  -21.5066   -5.6535  -28.2530 H   0  0  0  0  0  0  0  0  0  0  0  0
  -20.5263   -6.5541  -32.5385 H   0  0  0  0  0  0  0  0  0  0  0  0
  -21.7357   -6.1976  -33.5898 H   0  0  0  0  0  0  0  0  0  0  0  0
  -20.5791   -6.0206  -29.4910 H   0  0  0  0  0  0  0  0  0  0  0  0
  1  2  2  0  0  0  0
  1  7  1  0  0  0  0
  2  8  1  0  0  0  0
  3  5  1  0  0  0  0
  3 11  2  0  0  0  0
  4  6  2  0  0  0  0
  4 11  1  0  0  0  0
  5 12  2  0  0  0  0
  6 12  1  0  0  0  0
  7 15  2  0  0  0  0
  8 16  2  0  0  0  0
  9 13  2  0  0  0  0
  9 14  1  0  0  0  0
 10 13  1  0  0  0  0
 10 17  2  0  0  0  0
 11 24  1  0  0  0  0
 12 26  1  0  0  0  0
 13 20  1  0  0  0  0
 14 18  2  0  0  0  0
 14 25  1  0  0  0  0
 15 16  1  0  0  0  0
 15 28  1  0  0  0  0
 16 29  1  0  0  0  0
 17 18  1  0  0  0  0
 17 30  1  0  0  0  0
 18 32  1  0  0  0  0
 19 28  2  0  0  0  0
 19 29  1  0  0  0  0
 19 30  1  0  0  0  0
 21 27  1  0  0  0  0
 22 27  1  0  0  0  0
 23 27  1  0  0  0  0
 24 29  1  0  0  0  0
 25 31  1  0  0  0  0
 26 33  1  0  0  0  0
 26 34  1  0  0  0  0
 26 35  1  0  0  0  0
 27 31  1  0  0  0  0
  1 36  1  0  0  0  0
  2 37  1  0  0  0  0
  3 38  1  0  0  0  0
  4 39  1  0  0  0  0
  5 40  1  0  0  0  0
  6 41  1  0  0  0  0
  7 42  1  0  0  0  0
  8 43  1  0  0  0  0
  9 44  1  0  0  0  0
 10 45  1  0  0  0  0
 20 46  1  0  0  0  0
 20 47  1  0  0  0  0
 20 48  1  0  0  0  0
 21 49  1  0  0  0  0
 21 50  1  0  0  0  0
 21 51  1  0  0  0  0
 22 52  1  0  0  0  0
 22 53  1  0  0  0  0
 22 54  1  0  0  0  0
 23 55  1  0  0  0  0
 23 56  1  0  0  0  0
 23 57  1  0  0  0  0
 24 58  1  0  0  0  0
 24 59  1  0  0  0  0
 25 60  1  0  0  0  0
 25 61  1  0  0  0  0
 30 62  1  0  0  0  0
 31 63  1  0  0  0  0
 31 64  1  0  0  0  0
 32 65  1  0  0  0  0
M  CHG  1  31   1
M  END
> <SMILES>
Cc1cc(c(c(c1)Nc1nc2ccccc2n1Cc1ccc(cc1)C(F)(F)F)O)CNC(C)(C)C

> <FORMATTED_ID>
H3D-006776

> <MOLFORMULA>
C27H29F3N4O

> <Exact Mass>
482.23

> <XLogP>
8.17

> <TPSA_NOPS>
62.1

> <s_m_source_file>
ligprep_h3d.sdf

> <i_m_source_file_index>
2555

> <i_lp_mmshare_version>
55123

> <i_f3d_flags>
0

> <s_epik_input>
W0NIM11DKFtDSDNdKShbQ0gzXSlbTkhdW0NIMl1jKFtjSF1jMVtDSDNdKWMoW09IXSljKFtjSF0xKVtOSF1jKG4yKW4oYyhjMjMpW2NIXVtjSF1bY0hdW2NIXTMpW0NIMl1jNFtjSF1bY0hdYyhDKEYpKEYpRilbY0hdW2NIXTQ=

> <s_epik_cmdline>
J2VwaWtfcHl0aG9uJywgJy1waHQnLCAnMC41JywgJy1waCcsICc3LjUnLCAnLXRuJywgJzgnLCAnLW1hJywgJzUwMCcsICctaW1hZScsICc8aW5maWxlLm1hZT4nLCAnLW9tYWUnLCAnPG91dGZpbGUubWFlPic=

> <r_lp_tautomer_probability>
1

> <r_epik_Ionization_Penalty>
0.0551159

> <r_epik_Ionization_Penalty_Charging>
0.0121388

> <r_epik_Ionization_Penalty_Neutral>
0.0429771

> <r_epik_State_Penalty>
-0

> <r_epik_Charging_Adjusted_Penalty>
0.0121388

> <i_epik_Tot_Q>
1

> <i_epik_Tot_abs_Q>
1

> <s_lp_Force_Field>
S-OPLS

> <r_lp_Energy>
38.5881

> <b_lp_Chiralities_Consistent>
1

> <s_lp_Variant>
ligprep_h3d.sdf:2555-1

> <ROCS_ShapeQuery>
_7L13

> <ROCS_TanimotoCombo>
0.735 

> <ROCS_ShapeTanimoto>
0.631 

> <ROCS_ColorTanimoto>
0.104 

> <ROCS_RefTversky>
0.761 

> <ROCS_RefColorTversky>
0.208 

> <ROCS_RefTverskyCombo>
0.969 

> <ROCS_FitTversky>
0.786 

> <ROCS_FitColorTversky>
0.173 

> <ROCS_FitTverskyCombo>
0.960 

> <ROCS_ColorScore>
-1.894

> <ROCS_Overlap>
1261.868

> <ROCS_Rank>
724                 

$$$$
ligprep_h3d.sdf:739_81
  -OEChem-08212117123D

 60 65  0     1  0  0  0  0  0999 V2000
  -20.9921   -5.1581  -29.4988 C   0  0  0  0  0  0  0  0  0  0  0  0
  -21.7520   -4.3876  -30.3815 C   0  0  0  0  0  0  0  0  0  0  0  0
  -21.1045   -4.9107  -28.1095 C   0  0  0  0  0  0  0  0  0  0  0  0
  -21.9867   -3.9399  -27.5786 C   0  0  0  0  0  0  0  0  0  0  0  0
  -22.5839   -3.4212  -29.8601 C   0  0  0  0  0  0  0  0  0  0  0  0
  -22.7305   -3.1624  -28.4971 C   0  0  0  0  0  0  0  0  0  0  0  0
  -21.9434   -4.2804  -31.7716 C   0  0  0  0  0  0  0  0  0  0  0  0
  -18.9024   -3.8360  -26.2358 C   0  0  0  0  0  0  0  0  0  0  0  0
  -19.2509   -6.0403  -25.0025 C   0  0  0  0  0  0  0  0  0  0  0  0
  -17.0654   -5.1912  -25.8238 C   0  0  0  0  0  0  0  0  0  0  0  0
  -20.2604   -5.7442  -27.1830 C   0  0  0  0  0  0  0  0  0  0  0  0
  -20.8134   -7.3622  -33.5314 C   0  0  0  0  0  0  0  0  0  0  0  0
  -19.8834   -6.8350  -34.6187 C   0  0  0  0  0  0  0  0  0  0  0  0
  -20.8672   -6.4585  -32.3021 C   0  0  0  0  0  0  0  0  0  0  0  0
  -20.9152   -4.6007  -34.0077 C   0  0  0  0  0  0  0  0  0  0  0  0
  -23.0496   -2.7891  -25.6476 C   0  0  0  0  0  0  0  0  0  0  0  0
  -21.2081   -4.4635  -25.2324 C   0  0  2  0  0  0  0  0  0  0  0  0
  -19.6818   -5.3241  -34.5468 C   0  0  2  0  0  0  0  0  0  0  0  0
  -23.4216   -3.1012  -24.1951 C   0  0  1  0  0  0  0  0  0  0  0  0
  -21.0468   -3.5251  -24.0004 C   0  0  2  0  0  0  0  0  0  0  0  0
  -19.8857   -4.9787  -25.8899 C   0  0  2  0  0  0  0  0  0  0  0  0
  -24.4107   -4.2594  -24.0779 C   0  0  0  0  0  0  0  0  0  0  0  0
  -20.0892   -3.9959  -22.9130 C   0  0  0  0  0  0  0  0  0  0  0  0
  -22.8207   -3.3239  -32.0902 N   0  0  0  0  0  0  0  0  0  0  0  0
  -17.6419   -4.1911  -26.4916 N   0  5  0  0  0  0  0  0  0  0  0  0
  -17.8714   -6.0328  -25.0593 N   0  0  0  0  0  0  0  0  0  0  0  0
  -22.0952   -3.7600  -26.1974 N   0  0  3  0  0  0  0  0  0  0  0  0
  -21.2684   -5.0987  -32.6758 N   0  0  0  0  0  0  0  0  0  0  0  0
  -19.3061   -2.6818  -26.3765 O   0  0  0  0  0  0  0  0  0  0  0  0
  -19.8898   -6.8716  -24.3613 O   0  0  0  0  0  0  0  0  0  0  0  0
  -15.8528   -5.4152  -25.8686 O   0  0  0  0  0  0  0  0  0  0  0  0
  -23.2234   -2.7797  -30.8762 O   0  0  0  0  0  0  0  0  0  0  0  0
  -22.3111   -3.3666  -23.3431 O   0  0  0  0  0  0  0  0  0  0  0  0
  -19.3664   -4.8446  -35.8502 O   0  0  0  0  0  0  0  0  0  0  0  0
  -23.4914   -2.1231  -28.1335 F   0  0  0  0  0  0  0  0  0  0  0  0
  -20.3201   -5.9261  -29.8712 H   0  0  0  0  0  0  0  0  0  0  0  0
  -20.8272   -6.6551  -26.9459 H   0  0  0  0  0  0  0  0  0  0  0  0
  -19.3513   -6.0713  -27.7045 H   0  0  0  0  0  0  0  0  0  0  0  0
  -21.8274   -7.4809  -33.9436 H   0  0  0  0  0  0  0  0  0  0  0  0
  -20.4865   -8.3709  -33.2295 H   0  0  0  0  0  0  0  0  0  0  0  0
  -18.9031   -7.3453  -34.5573 H   0  0  0  0  0  0  0  0  0  0  0  0
  -20.2773   -7.1123  -35.6166 H   0  0  0  0  0  0  0  0  0  0  0  0
  -21.5828   -6.8592  -31.5733 H   0  0  0  0  0  0  0  0  0  0  0  0
  -19.8803   -6.4529  -31.8227 H   0  0  0  0  0  0  0  0  0  0  0  0
  -20.7121   -3.5216  -33.9818 H   0  0  0  0  0  0  0  0  0  0  0  0
  -21.7642   -4.7334  -34.6918 H   0  0  0  0  0  0  0  0  0  0  0  0
  -23.9607   -2.8290  -26.2796 H   0  0  0  0  0  0  0  0  0  0  0  0
  -22.7326   -1.7355  -25.6910 H   0  0  0  0  0  0  0  0  0  0  0  0
  -21.7873   -5.3394  -24.8983 H   0  0  0  0  0  0  0  0  0  0  0  0
  -18.8113   -5.1049  -33.9003 H   0  0  0  0  0  0  0  0  0  0  0  0
  -23.9654   -2.1922  -23.7603 H   0  0  0  0  0  0  0  0  0  0  0  0
  -20.7109   -2.5195  -24.3114 H   0  0  0  0  0  0  0  0  0  0  0  0
  -23.9653   -5.1720  -24.4744 H   0  0  0  0  0  0  0  0  0  0  0  0
  -25.3166   -4.0347  -24.6411 H   0  0  0  0  0  0  0  0  0  0  0  0
  -24.6748   -4.4201  -23.0325 H   0  0  0  0  0  0  0  0  0  0  0  0
  -20.3761   -4.9893  -22.5679 H   0  0  0  0  0  0  0  0  0  0  0  0
  -20.1160   -3.3069  -22.0687 H   0  0  0  0  0  0  0  0  0  0  0  0
  -19.0724   -4.0371  -23.3038 H   0  0  0  0  0  0  0  0  0  0  0  0
  -17.3913   -6.7155  -24.4805 H   0  0  0  0  0  0  0  0  0  0  0  0
  -18.5517   -5.2957  -36.1220 H   0  0  0  0  0  0  0  0  0  0  0  0
  1  2  2  0  0  0  0
  1  3  1  0  0  0  0
  2  5  1  0  0  0  0
  2  7  1  0  0  0  0
  3  4  2  0  0  0  0
  3 11  1  0  0  0  0
  4  6  1  0  0  0  0
  4 27  1  0  0  0  0
  5  6  2  0  0  0  0
  5 32  1  0  0  0  0
  6 35  1  0  0  0  0
  7 24  2  0  0  0  0
  7 28  1  0  0  0  0
  8 21  1  0  0  0  0
  8 25  1  0  0  0  0
  8 29  2  0  0  0  0
  9 21  1  0  0  0  0
  9 26  1  0  0  0  0
  9 30  2  0  0  0  0
 10 25  1  0  0  0  0
 10 26  1  0  0  0  0
 10 31  2  0  0  0  0
 11 21  1  0  0  0  0
 12 13  1  0  0  0  0
 12 14  1  0  0  0  0
 13 18  1  0  0  0  0
 14 28  1  0  0  0  0
 15 18  1  0  0  0  0
 15 28  1  0  0  0  0
 16 19  1  0  0  0  0
 16 27  1  0  0  0  0
 17 20  1  0  0  0  0
 17 21  1  0  0  0  0
 17 27  1  0  0  0  0
 18 34  1  0  0  0  0
 19 22  1  0  0  0  0
 19 33  1  0  0  0  0
 20 23  1  0  0  0  0
 20 33  1  0  0  0  0
 24 32  1  0  0  0  0
  1 36  1  0  0  0  0
 11 37  1  0  0  0  0
 11 38  1  0  0  0  0
 12 39  1  0  0  0  0
 12 40  1  0  0  0  0
 13 41  1  0  0  0  0
 13 42  1  0  0  0  0
 14 43  1  0  0  0  0
 14 44  1  0  0  0  0
 15 45  1  0  0  0  0
 15 46  1  0  0  0  0
 16 47  1  0  0  0  0
 16 48  1  0  0  0  0
 17 49  1  0  0  0  0
 18 50  1  0  0  0  0
 19 51  1  0  0  0  0
 20 52  1  0  0  0  0
 22 53  1  0  0  0  0
 22 54  1  0  0  0  0
 22 55  1  0  0  0  0
 23 56  1  0  0  0  0
 23 57  1  0  0  0  0
 23 58  1  0  0  0  0
 26 59  1  0  0  0  0
 34 60  1  0  0  0  0
M  CHG  1  25  -1
M  END
> <SMILES>
C[C@@H]1CN2[C@H]([C@H](C)O1)C1(Cc3cc4c(noc4c(c32)F)N2CCC[C@@H](O)C2)C(=O)NC(=O)NC1=O

> <FORMATTED_ID>
H3D-004995

> <MOLFORMULA>
C23H26FN5O6

> <Exact Mass>
487.19

> <XLogP>
0.29

> <TPSA_NOPS>
137.5

> <s_m_source_file>
ligprep_h3d.sdf

> <i_m_source_file_index>
739

> <i_lp_mmshare_version>
55123

> <i_f3d_flags>
0

> <s_epik_input>
Tz1DMVtOSF1DKD1PKVtOSF1DKD1PKUMxMltDQEBIXTNOKFtDSDJdW0NAQEhdKFtDSDNdKU9bQ0BIXTNbQ0gzXSljNGMoW0NIMl0yKVtjSF1jNWMoYzRGKW9uYzVONltDSDJdW0NIMl1bQ0gyXVtDQEBIXShbT0hdKVtDSDJdNg==

> <s_epik_cmdline>
J2VwaWtfcHl0aG9uJywgJy1waHQnLCAnMC41JywgJy1waCcsICc3LjUnLCAnLXRuJywgJzgnLCAnLW1hJywgJzUwMCcsICctaW1hZScsICc8aW5maWxlLm1hZT4nLCAnLW9tYWUnLCAnPG91dGZpbGUubWFlPic=

> <r_lp_tautomer_probability>
1

> <r_epik_Ionization_Penalty>
0.455393

> <r_epik_Ionization_Penalty_Charging>
0.455373

> <r_epik_Ionization_Penalty_Neutral>
1.99082e-05

> <r_epik_State_Penalty>
0.458483

> <r_epik_Charging_Adjusted_Penalty>
0.913857

> <i_epik_Tot_Q>
-1

> <i_epik_Tot_abs_Q>
1

> <s_lp_Force_Field>
S-OPLS

> <r_lp_Energy>
54.1942

> <b_lp_Chiralities_Consistent>
1

> <s_lp_Variant>
ligprep_h3d.sdf:739-2

> <ROCS_ShapeQuery>
_7L13

> <ROCS_TanimotoCombo>
0.741 

> <ROCS_ShapeTanimoto>
0.616 

> <ROCS_ColorTanimoto>
0.125 

> <ROCS_RefTversky>
0.761 

> <ROCS_RefColorTversky>
0.297 

> <ROCS_RefTverskyCombo>
1.058 

> <ROCS_FitTversky>
0.764 

> <ROCS_FitColorTversky>
0.177 

> <ROCS_FitTverskyCombo>
0.941 

> <ROCS_ColorScore>
-2.774

> <ROCS_Overlap>
1263.829

> <ROCS_Rank>
725                 

$$$$
ligprep_h3d.sdf:1643_1222
  -OEChem-08212117123D

 63 67  0     0  0  0  0  0  0999 V2000
  -20.9645   -4.6609  -32.5832 C   0  0  0  0  0  0  0  0  0  0  0  0
  -20.1202   -6.8347  -31.9516 C   0  0  0  0  0  0  0  0  0  0  0  0
  -20.7790   -4.9797  -33.9284 C   0  0  0  0  0  0  0  0  0  0  0  0
  -19.9347   -7.1535  -33.2968 C   0  0  0  0  0  0  0  0  0  0  0  0
  -21.9885   -4.9238  -29.5443 C   0  0  0  0  0  0  0  0  0  0  0  0
  -20.6351   -5.5884  -31.5948 C   0  0  0  0  0  0  0  0  0  0  0  0
  -20.2641   -6.2259  -34.2852 C   0  0  0  0  0  0  0  0  0  0  0  0
  -21.7698   -4.6640  -28.1583 C   0  0  0  0  0  0  0  0  0  0  0  0
  -20.4289   -4.8125  -27.8061 C   0  0  0  0  0  0  0  0  0  0  0  0
  -20.8270   -5.2584  -30.2022 C   0  0  0  0  0  0  0  0  0  0  0  0
  -20.0452   -4.5947  -26.4880 C   0  0  0  0  0  0  0  0  0  0  0  0
  -22.2448   -4.1256  -26.0117 C   0  0  0  0  0  0  0  0  0  0  0  0
  -16.4944   -3.7341  -25.6833 C   0  0  0  0  0  0  0  0  0  0  0  0
  -16.7656   -6.2223  -25.8079 C   0  0  0  0  0  0  0  0  0  0  0  0
  -24.4045   -5.3539  -22.8815 C   0  0  0  0  0  0  0  0  0  0  0  0
  -25.2302   -2.9885  -23.0119 C   0  0  0  0  0  0  0  0  0  0  0  0
  -18.0063   -3.5804  -25.5139 C   0  0  0  0  0  0  0  0  0  0  0  0
  -18.2752   -6.0616  -25.6318 C   0  0  0  0  0  0  0  0  0  0  0  0
  -25.6408   -5.6648  -22.0465 C   0  0  0  0  0  0  0  0  0  0  0  0
  -26.4204   -3.4319  -22.1699 C   0  0  0  0  0  0  0  0  0  0  0  0
  -24.0124   -3.8788  -22.7396 C   0  0  0  0  0  0  0  0  0  0  0  0
  -16.0175   -5.0752  -25.1380 C   0  0  0  0  0  0  0  0  0  0  0  0
  -22.8536   -3.5254  -23.6676 C   0  0  0  0  0  0  0  0  0  0  0  0
  -20.0654   -6.5665  -35.7234 C   0  0  0  0  0  0  0  0  0  0  0  0
  -22.7220   -4.3115  -27.2538 N   0  0  0  0  0  0  0  0  0  0  0  0
  -20.9762   -4.2448  -25.5786 N   0  0  0  0  0  0  0  0  0  0  0  0
  -18.7102   -4.7333  -26.0890 N   0  0  0  0  0  0  0  0  0  0  0  0
  -23.1976   -3.7598  -25.0343 N   0  0  0  0  0  0  0  0  0  0  0  0
  -14.5639   -5.2201  -25.4099 N   0  3  0  0  0  0  0  0  0  0  0  0
  -26.7229   -4.8065  -22.4057 O   0  0  0  0  0  0  0  0  0  0  0  0
  -20.4295   -5.5654  -36.5786 F   0  0  0  0  0  0  0  0  0  0  0  0
  -18.7689   -6.8537  -36.0433 F   0  0  0  0  0  0  0  0  0  0  0  0
  -20.7880   -7.6583  -36.1094 F   0  0  0  0  0  0  0  0  0  0  0  0
  -19.4734   -5.2612  -29.1591 S   0  0  0  0  0  0  0  0  0  0  0  0
  -21.3666   -3.6851  -32.3211 H   0  0  0  0  0  0  0  0  0  0  0  0
  -19.8589   -7.5685  -31.1928 H   0  0  0  0  0  0  0  0  0  0  0  0
  -21.0380   -4.2508  -34.6918 H   0  0  0  0  0  0  0  0  0  0  0  0
  -19.5330   -8.1269  -33.5653 H   0  0  0  0  0  0  0  0  0  0  0  0
  -22.9557   -4.8651  -30.0292 H   0  0  0  0  0  0  0  0  0  0  0  0
  -16.2272   -3.6277  -26.7319 H   0  0  0  0  0  0  0  0  0  0  0  0
  -15.9963   -2.9338  -25.1376 H   0  0  0  0  0  0  0  0  0  0  0  0
  -16.4555   -7.1612  -25.3519 H   0  0  0  0  0  0  0  0  0  0  0  0
  -16.5200   -6.2772  -26.8653 H   0  0  0  0  0  0  0  0  0  0  0  0
  -23.5752   -6.0034  -22.5797 H   0  0  0  0  0  0  0  0  0  0  0  0
  -24.6254   -5.5680  -23.9351 H   0  0  0  0  0  0  0  0  0  0  0  0
  -25.4997   -3.0610  -24.0733 H   0  0  0  0  0  0  0  0  0  0  0  0
  -24.9937   -1.9392  -22.8027 H   0  0  0  0  0  0  0  0  0  0  0  0
  -18.2297   -3.4981  -24.4427 H   0  0  0  0  0  0  0  0  0  0  0  0
  -18.3521   -2.6544  -25.9894 H   0  0  0  0  0  0  0  0  0  0  0  0
  -18.8114   -6.8420  -26.1854 H   0  0  0  0  0  0  0  0  0  0  0  0
  -18.5175   -6.1914  -24.5696 H   0  0  0  0  0  0  0  0  0  0  0  0
  -25.9601   -6.6964  -22.2251 H   0  0  0  0  0  0  0  0  0  0  0  0
  -25.4343   -5.5632  -20.9746 H   0  0  0  0  0  0  0  0  0  0  0  0
  -26.2323   -3.2776  -21.1010 H   0  0  0  0  0  0  0  0  0  0  0  0
  -27.3047   -2.8450  -22.4379 H   0  0  0  0  0  0  0  0  0  0  0  0
  -23.6721   -3.7034  -21.7131 H   0  0  0  0  0  0  0  0  0  0  0  0
  -16.1287   -5.1175  -24.0564 H   0  0  0  0  0  0  0  0  0  0  0  0
  -22.6012   -2.4626  -23.5381 H   0  0  0  0  0  0  0  0  0  0  0  0
  -21.9823   -4.1437  -23.4055 H   0  0  0  0  0  0  0  0  0  0  0  0
  -24.1467   -3.6696  -25.3403 H   0  0  0  0  0  0  0  0  0  0  0  0
  -14.3012   -6.2083  -25.4497 H   0  0  0  0  0  0  0  0  0  0  0  0
  -14.0133   -4.7708  -24.6733 H   0  0  0  0  0  0  0  0  0  0  0  0
  -14.3193   -4.7863  -26.3040 H   0  0  0  0  0  0  0  0  0  0  0  0
  1  3  1  0  0  0  0
  1  6  2  0  0  0  0
  2  4  2  0  0  0  0
  2  6  1  0  0  0  0
  3  7  2  0  0  0  0
  4  7  1  0  0  0  0
  5  8  1  0  0  0  0
  5 10  2  0  0  0  0
  6 10  1  0  0  0  0
  7 24  1  0  0  0  0
  8  9  1  0  0  0  0
  8 25  2  0  0  0  0
  9 11  2  0  0  0  0
  9 34  1  0  0  0  0
 10 34  1  0  0  0  0
 11 26  1  0  0  0  0
 11 27  1  0  0  0  0
 12 25  1  0  0  0  0
 12 26  2  0  0  0  0
 12 28  1  0  0  0  0
 13 17  1  0  0  0  0
 13 22  1  0  0  0  0
 14 18  1  0  0  0  0
 14 22  1  0  0  0  0
 15 19  1  0  0  0  0
 15 21  1  0  0  0  0
 16 20  1  0  0  0  0
 16 21  1  0  0  0  0
 17 27  1  0  0  0  0
 18 27  1  0  0  0  0
 19 30  1  0  0  0  0
 20 30  1  0  0  0  0
 21 23  1  0  0  0  0
 22 29  1  0  0  0  0
 23 28  1  0  0  0  0
 24 31  1  0  0  0  0
 24 32  1  0  0  0  0
 24 33  1  0  0  0  0
  1 35  1  0  0  0  0
  2 36  1  0  0  0  0
  3 37  1  0  0  0  0
  4 38  1  0  0  0  0
  5 39  1  0  0  0  0
 13 40  1  0  0  0  0
 13 41  1  0  0  0  0
 14 42  1  0  0  0  0
 14 43  1  0  0  0  0
 15 44  1  0  0  0  0
 15 45  1  0  0  0  0
 16 46  1  0  0  0  0
 16 47  1  0  0  0  0
 17 48  1  0  0  0  0
 17 49  1  0  0  0  0
 18 50  1  0  0  0  0
 18 51  1  0  0  0  0
 19 52  1  0  0  0  0
 19 53  1  0  0  0  0
 20 54  1  0  0  0  0
 20 55  1  0  0  0  0
 21 56  1  0  0  0  0
 22 57  1  0  0  0  0
 23 58  1  0  0  0  0
 23 59  1  0  0  0  0
 28 60  1  0  0  0  0
 29 61  1  0  0  0  0
 29 62  1  0  0  0  0
 29 63  1  0  0  0  0
M  CHG  1  29   1
M  END
> <SMILES>
NC1CCN(CC1)c1nc(nc2cc(sc12)-c1ccc(cc1)C(F)(F)F)NCC1CCOCC1

> <FORMATTED_ID>
H3D-015077

> <MOLFORMULA>
C24H28F3N5OS

> <Exact Mass>
491.2

> <XLogP>
5.3

> <TPSA_NOPS>
104.5

> <s_m_source_file>
ligprep_h3d.sdf

> <i_m_source_file_index>
1643

> <i_lp_mmshare_version>
55123

> <i_f3d_flags>
0

> <s_epik_input>
W2NIXTFbY0hdYyhDKEYpKEYpRilbY0hdW2NIXWMxLWMoW2NIXTIpc2MoYzIzKWMoTihbQ0gyXVtDSDJdNClbQ0gyXVtDSDJdW0NIXTRbTkgyXSluYyhuMylbTkhdW0NIMl1bQ0hdNVtDSDJdW0NIMl1PW0NIMl1bQ0gyXTU=

> <s_epik_cmdline>
J2VwaWtfcHl0aG9uJywgJy1waHQnLCAnMC41JywgJy1waCcsICc3LjUnLCAnLXRuJywgJzgnLCAnLW1hJywgJzUwMCcsICctaW1hZScsICc8aW5maWxlLm1hZT4nLCAnLW9tYWUnLCAnPG91dGZpbGUubWFlPic=

> <r_lp_tautomer_probability>
1

> <r_epik_Ionization_Penalty>
0.0379239

> <r_epik_Ionization_Penalty_Charging>
0.0209945

> <r_epik_Ionization_Penalty_Neutral>
0.0169294

> <r_epik_State_Penalty>
-0

> <r_epik_Charging_Adjusted_Penalty>
0.0209945

> <i_epik_Tot_Q>
1

> <i_epik_Tot_abs_Q>
1

> <s_lp_Force_Field>
S-OPLS

> <r_lp_Energy>
42.0775

> <b_lp_Chiralities_Consistent>
1

> <s_lp_Variant>
ligprep_h3d.sdf:1643-1

> <ROCS_ShapeQuery>
_7L13

> <ROCS_TanimotoCombo>
0.763 

> <ROCS_ShapeTanimoto>
0.649 

> <ROCS_ColorTanimoto>
0.114 

> <ROCS_RefTversky>
0.761 

> <ROCS_RefColorTversky>
0.226 

> <ROCS_RefTverskyCombo>
0.987 

> <ROCS_FitTversky>
0.815 

> <ROCS_FitColorTversky>
0.188 

> <ROCS_FitTverskyCombo>
1.003 

> <ROCS_ColorScore>
-2.054

> <ROCS_Overlap>
1259.410

> <ROCS_Rank>
726                 

$$$$
ligprep_h3d.sdf:5405_1708
  -OEChem-08212117123D

 78 83  0     0  0  0  0  0  0999 V2000
  -20.6903   -7.5812  -34.8898 C   0  0  0  0  0  0  0  0  0  0  0  0
  -19.3557   -5.6523  -35.4688 C   0  0  0  0  0  0  0  0  0  0  0  0
  -20.1064   -8.2986  -35.9338 C   0  0  0  0  0  0  0  0  0  0  0  0
  -18.7717   -6.3697  -36.5128 C   0  0  0  0  0  0  0  0  0  0  0  0
  -25.2013   -5.6875  -24.3386 C   0  0  0  0  0  0  0  0  0  0  0  0
  -22.7085   -3.5667  -25.8304 C   0  0  0  0  0  0  0  0  0  0  0  0
  -17.8725   -4.9640  -30.0963 C   0  0  0  0  0  0  0  0  0  0  0  0
  -20.5851   -4.5589  -30.7397 C   0  0  0  0  0  0  0  0  0  0  0  0
  -25.3335   -5.1398  -23.0772 C   0  0  0  0  0  0  0  0  0  0  0  0
  -23.7171   -3.4329  -23.4515 C   0  0  0  0  0  0  0  0  0  0  0  0
  -23.5422   -3.9437  -24.7370 C   0  0  0  0  0  0  0  0  0  0  0  0
  -18.8347   -4.8788  -29.0954 C   0  0  0  0  0  0  0  0  0  0  0  0
  -20.3150   -6.2580  -34.6573 C   0  0  0  0  0  0  0  0  0  0  0  0
  -24.2781   -5.0513  -25.1584 C   0  0  0  0  0  0  0  0  0  0  0  0
  -20.1795   -4.6782  -29.4168 C   0  0  0  0  0  0  0  0  0  0  0  0
  -18.2714   -4.8443  -31.4273 C   0  0  0  0  0  0  0  0  0  0  0  0
  -19.6195   -4.6432  -31.7462 C   0  0  0  0  0  0  0  0  0  0  0  0
  -19.1471   -7.6929  -36.7453 C   0  0  0  0  0  0  0  0  0  0  0  0
  -22.9519   -4.4354  -26.8687 C   0  0  0  0  0  0  0  0  0  0  0  0
  -22.3397   -4.4564  -28.2045 C   0  0  0  0  0  0  0  0  0  0  0  0
  -15.6707   -5.5638  -24.6056 C   0  0  0  0  0  0  0  0  0  0  0  0
  -17.6680   -3.8927  -27.0833 C   0  0  0  0  0  0  0  0  0  0  0  0
  -18.0804   -6.3823  -27.2173 C   0  0  0  0  0  0  0  0  0  0  0  0
  -17.3580   -4.0530  -25.5955 C   0  0  0  0  0  0  0  0  0  0  0  0
  -17.7538   -6.4912  -25.7269 C   0  0  0  0  0  0  0  0  0  0  0  0
  -20.0692   -4.7777  -27.0772 C   0  0  0  0  0  0  0  0  0  0  0  0
  -18.6209   -4.9892  -27.6024 C   0  0  0  0  0  0  0  0  0  0  0  0
  -13.1776   -6.6831  -25.7177 C   0  0  0  0  0  0  0  0  0  0  0  0
  -14.0088   -8.9728  -25.2011 C   0  0  0  0  0  0  0  0  0  0  0  0
  -16.7169   -3.7083  -32.8233 C   0  0  0  0  0  0  0  0  0  0  0  0
  -20.9422   -5.4859  -33.5340 C   0  0  0  0  0  0  0  0  0  0  0  0
  -15.2303   -6.9813  -24.3395 C   0  0  0  0  0  0  0  0  0  0  0  0
  -23.9016   -5.3282  -26.4529 N   0  0  0  0  0  0  0  0  0  0  0  0
  -24.6147   -4.0781  -22.7020 N   0  3  0  0  0  0  0  0  0  0  0  0
  -20.9615   -4.6247  -28.2472 N   0  0  0  0  0  0  0  0  0  0  0  0
  -16.8702   -5.4007  -25.2996 N   0  0  0  0  0  0  0  0  0  0  0  0
  -14.3971   -7.5288  -25.4272 N   0  3  0  0  0  0  0  0  0  0  0  0
  -23.1099   -4.3266  -29.1516 O   0  0  0  0  0  0  0  0  0  0  0  0
  -14.9672   -4.6308  -24.2096 O   0  0  0  0  0  0  0  0  0  0  0  0
  -17.3350   -4.9265  -32.4145 O   0  0  0  0  0  0  0  0  0  0  0  0
  -20.0059   -4.5266  -33.0491 O   0  0  0  0  0  0  0  0  0  0  0  0
  -18.5843   -8.3827  -37.7462 F   0  0  0  0  0  0  0  0  0  0  0  0
  -21.4374   -8.0614  -34.2634 H   0  0  0  0  0  0  0  0  0  0  0  0
  -19.0568   -4.6219  -35.2950 H   0  0  0  0  0  0  0  0  0  0  0  0
  -20.3979   -9.3289  -36.1144 H   0  0  0  0  0  0  0  0  0  0  0  0
  -18.0251   -5.8984  -37.1450 H   0  0  0  0  0  0  0  0  0  0  0  0
  -25.7748   -6.5472  -24.6607 H   0  0  0  0  0  0  0  0  0  0  0  0
  -22.0056   -2.7441  -25.8487 H   0  0  0  0  0  0  0  0  0  0  0  0
  -16.8271   -5.1226  -29.8494 H   0  0  0  0  0  0  0  0  0  0  0  0
  -21.6202   -4.4015  -31.0180 H   0  0  0  0  0  0  0  0  0  0  0  0
  -26.0139   -5.5298  -22.3315 H   0  0  0  0  0  0  0  0  0  0  0  0
  -23.2102   -2.5860  -23.0110 H   0  0  0  0  0  0  0  0  0  0  0  0
  -18.0914   -2.8960  -27.2624 H   0  0  0  0  0  0  0  0  0  0  0  0
  -16.7199   -3.9223  -27.6369 H   0  0  0  0  0  0  0  0  0  0  0  0
  -17.1663   -6.6024  -27.7853 H   0  0  0  0  0  0  0  0  0  0  0  0
  -18.8011   -7.1643  -27.4894 H   0  0  0  0  0  0  0  0  0  0  0  0
  -16.6251   -3.2982  -25.2926 H   0  0  0  0  0  0  0  0  0  0  0  0
  -18.2555   -3.8909  -24.9878 H   0  0  0  0  0  0  0  0  0  0  0  0
  -18.6645   -6.4222  -25.1213 H   0  0  0  0  0  0  0  0  0  0  0  0
  -17.3169   -7.4719  -25.5295 H   0  0  0  0  0  0  0  0  0  0  0  0
  -20.4327   -5.6229  -26.4814 H   0  0  0  0  0  0  0  0  0  0  0  0
  -20.1677   -3.8733  -26.4651 H   0  0  0  0  0  0  0  0  0  0  0  0
  -12.5607   -6.6663  -24.8173 H   0  0  0  0  0  0  0  0  0  0  0  0
  -12.6431   -7.1426  -26.5513 H   0  0  0  0  0  0  0  0  0  0  0  0
  -13.5209   -5.6797  -25.9769 H   0  0  0  0  0  0  0  0  0  0  0  0
  -13.4150   -9.0196  -24.2864 H   0  0  0  0  0  0  0  0  0  0  0  0
  -14.9274   -9.5545  -25.1031 H   0  0  0  0  0  0  0  0  0  0  0  0
  -13.4265   -9.3012  -26.0641 H   0  0  0  0  0  0  0  0  0  0  0  0
  -15.9920   -3.9144  -33.6147 H   0  0  0  0  0  0  0  0  0  0  0  0
  -16.2171   -3.2472  -31.9678 H   0  0  0  0  0  0  0  0  0  0  0  0
  -17.4847   -3.0302  -33.2033 H   0  0  0  0  0  0  0  0  0  0  0  0
  -21.8444   -4.9650  -33.8724 H   0  0  0  0  0  0  0  0  0  0  0  0
  -21.2273   -6.1552  -32.7152 H   0  0  0  0  0  0  0  0  0  0  0  0
  -16.1040   -7.6193  -24.2475 H   0  0  0  0  0  0  0  0  0  0  0  0
  -14.6421   -7.0110  -23.4277 H   0  0  0  0  0  0  0  0  0  0  0  0
  -24.2748   -6.0830  -27.0122 H   0  0  0  0  0  0  0  0  0  0  0  0
  -24.7648   -3.7273  -21.7554 H   0  0  0  0  0  0  0  0  0  0  0  0
  -14.9572   -7.5224  -26.2999 H   0  0  0  0  0  0  0  0  0  0  0  0
  1  3  1  0  0  0  0
  1 13  2  0  0  0  0
  2  4  2  0  0  0  0
  2 13  1  0  0  0  0
  3 18  2  0  0  0  0
  4 18  1  0  0  0  0
  5  9  1  0  0  0  0
  5 14  2  0  0  0  0
  6 11  1  0  0  0  0
  6 19  2  0  0  0  0
  7 12  1  0  0  0  0
  7 16  2  0  0  0  0
  8 15  1  0  0  0  0
  8 17  2  0  0  0  0
  9 34  2  0  0  0  0
 10 11  2  0  0  0  0
 10 34  1  0  0  0  0
 11 14  1  0  0  0  0
 12 15  2  0  0  0  0
 12 27  1  0  0  0  0
 13 31  1  0  0  0  0
 14 33  1  0  0  0  0
 15 35  1  0  0  0  0
 16 17  1  0  0  0  0
 16 40  1  0  0  0  0
 17 41  1  0  0  0  0
 18 42  1  0  0  0  0
 19 20  1  0  0  0  0
 19 33  1  0  0  0  0
 20 35  1  0  0  0  0
 20 38  2  0  0  0  0
 21 32  1  0  0  0  0
 21 36  1  0  0  0  0
 21 39  2  0  0  0  0
 22 24  1  0  0  0  0
 22 27  1  0  0  0  0
 23 25  1  0  0  0  0
 23 27  1  0  0  0  0
 24 36  1  0  0  0  0
 25 36  1  0  0  0  0
 26 27  1  0  0  0  0
 26 35  1  0  0  0  0
 28 37  1  0  0  0  0
 29 37  1  0  0  0  0
 30 40  1  0  0  0  0
 31 41  1  0  0  0  0
 32 37  1  0  0  0  0
  1 43  1  0  0  0  0
  2 44  1  0  0  0  0
  3 45  1  0  0  0  0
  4 46  1  0  0  0  0
  5 47  1  0  0  0  0
  6 48  1  0  0  0  0
  7 49  1  0  0  0  0
  8 50  1  0  0  0  0
  9 51  1  0  0  0  0
 10 52  1  0  0  0  0
 22 53  1  0  0  0  0
 22 54  1  0  0  0  0
 23 55  1  0  0  0  0
 23 56  1  0  0  0  0
 24 57  1  0  0  0  0
 24 58  1  0  0  0  0
 25 59  1  0  0  0  0
 25 60  1  0  0  0  0
 26 61  1  0  0  0  0
 26 62  1  0  0  0  0
 28 63  1  0  0  0  0
 28 64  1  0  0  0  0
 28 65  1  0  0  0  0
 29 66  1  0  0  0  0
 29 67  1  0  0  0  0
 29 68  1  0  0  0  0
 30 69  1  0  0  0  0
 30 70  1  0  0  0  0
 30 71  1  0  0  0  0
 31 72  1  0  0  0  0
 31 73  1  0  0  0  0
 32 74  1  0  0  0  0
 32 75  1  0  0  0  0
 33 76  1  0  0  0  0
 34 77  1  0  0  0  0
 37 78  1  0  0  0  0
M  CHG  2  34   1  37   1
M  END
> <SMILES>
COc1cc2c(cc1OCc1ccc(cc1)F)N(CC12CCN(CC1)C(=O)CN(C)C)C(=O)c1cc2cnccc2[nH]1

> <FORMATTED_ID>
H3D-015178

> <MOLFORMULA>
C32H34FN5O4

> <Exact Mass>
571.26

> <XLogP>
5.02

> <TPSA_NOPS>
91

> <s_m_source_file>
ligprep_h3d.sdf

> <i_m_source_file_index>
5405

> <i_lp_mmshare_version>
55123

> <i_f3d_flags>
0

> <s_epik_input>
W2NIXTFbY0hdYyhGKVtjSF1bY0hdYzFbQ0gyXU9jKGMoW2NIXTIpT1tDSDNdKVtjSF1jKGMyQzM0W0NIMl1bQ0gyXU4oW0NIMl1bQ0gyXTQpQyg9TylbQ0gyXU4oW0NIM10pW0NIM10pTihbQ0gyXTMpQyg9TyljKFtjSF01KVtuSF1jKGM1NilbY0hdW2NIXW5bY0hdNg==

> <s_epik_cmdline>
J2VwaWtfcHl0aG9uJywgJy1waHQnLCAnMC41JywgJy1waCcsICc3LjUnLCAnLXRuJywgJzgnLCAnLW1hJywgJzUwMCcsICctaW1hZScsICc8aW5maWxlLm1hZT4nLCAnLW9tYWUnLCAnPG91dGZpbGUubWFlPic=

> <r_lp_tautomer_probability>
1

> <r_epik_Ionization_Penalty>
0.342701

> <r_epik_Ionization_Penalty_Charging>
0.342679

> <r_epik_Ionization_Penalty_Neutral>
2.21902e-05

> <r_epik_State_Penalty>
0.323369

> <r_epik_Charging_Adjusted_Penalty>
0.666047

> <i_epik_Tot_Q>
2

> <i_epik_Tot_abs_Q>
2

> <s_lp_Force_Field>
S-OPLS

> <r_lp_Energy>
89.4085

> <b_lp_Chiralities_Consistent>
1

> <s_lp_Variant>
ligprep_h3d.sdf:5405-1

> <ROCS_ShapeQuery>
_7L13

> <ROCS_TanimotoCombo>
0.637 

> <ROCS_ShapeTanimoto>
0.547 

> <ROCS_ColorTanimoto>
0.090 

> <ROCS_RefTversky>
0.761 

> <ROCS_RefColorTversky>
0.213 

> <ROCS_RefTverskyCombo>
0.974 

> <ROCS_FitTversky>
0.661 

> <ROCS_FitColorTversky>
0.134 

> <ROCS_FitTverskyCombo>
0.795 

> <ROCS_ColorScore>
-1.978

> <ROCS_Overlap>
1274.556

> <ROCS_Rank>
727                 

$$$$
ligprep_h3d.sdf:2311_1686
  -OEChem-08212117123D

 66 69  0     0  0  0  0  0  0999 V2000
  -20.8131   -4.9788  -24.0689 C   0  0  0  0  0  0  0  0  0  0  0  0
  -24.5294   -5.4704  -25.1201 C   0  0  0  0  0  0  0  0  0  0  0  0
  -23.5635   -3.6389  -23.8752 C   0  0  0  0  0  0  0  0  0  0  0  0
  -25.6049   -5.5065  -24.2326 C   0  0  0  0  0  0  0  0  0  0  0  0
  -24.6390   -3.6749  -22.9877 C   0  0  0  0  0  0  0  0  0  0  0  0
  -16.7446   -4.6819  -27.6734 C   0  0  0  0  0  0  0  0  0  0  0  0
  -16.3299   -4.3731  -28.9699 C   0  0  0  0  0  0  0  0  0  0  0  0
  -18.6281   -3.9608  -29.6509 C   0  0  0  0  0  0  0  0  0  0  0  0
  -23.5087   -4.5366  -24.9414 C   0  0  0  0  0  0  0  0  0  0  0  0
  -25.6597   -4.6087  -23.1664 C   0  0  0  0  0  0  0  0  0  0  0  0
  -18.1166   -4.6304  -27.3662 C   0  0  0  0  0  0  0  0  0  0  0  0
  -19.0457   -4.2938  -28.3522 C   0  0  0  0  0  0  0  0  0  0  0  0
  -17.2588   -4.0119  -29.9401 C   0  0  0  0  0  0  0  0  0  0  0  0
  -20.0135   -4.6596  -26.3738 C   0  0  0  0  0  0  0  0  0  0  0  0
  -22.6086   -4.2441  -27.3022 C   0  0  0  0  0  0  0  0  0  0  0  0
  -21.1019   -4.7115  -25.4430 C   0  0  0  0  0  0  0  0  0  0  0  0
  -22.3670   -4.4983  -25.8832 C   0  0  0  0  0  0  0  0  0  0  0  0
  -21.6024   -4.1890  -28.1987 C   0  0  0  0  0  0  0  0  0  0  0  0
  -21.7079   -4.9952  -32.5574 C   0  0  0  0  0  0  0  0  0  0  0  0
  -24.7527   -4.8285  -33.8239 C   0  0  0  0  0  0  0  0  0  0  0  0
  -19.9220   -7.1836  -33.0218 C   0  0  0  0  0  0  0  0  0  0  0  0
  -20.7348   -7.1016  -35.3970 C   0  0  0  0  0  0  0  0  0  0  0  0
  -19.5291   -5.1273  -34.4189 C   0  0  0  0  0  0  0  0  0  0  0  0
  -24.2071   -5.2312  -32.4961 C   0  0  0  0  0  0  0  0  0  0  0  0
  -23.0835   -3.4386  -29.9792 C   0  0  0  0  0  0  0  0  0  0  0  0
  -23.1197   -3.2528  -31.4868 C   0  0  0  0  0  0  0  0  0  0  0  0
  -26.8111   -4.6463  -22.2193 C   0  0  0  0  0  0  0  0  0  0  0  0
  -20.4777   -6.2897  -34.1294 C   0  0  0  0  0  0  0  0  0  0  0  0
  -20.5788   -5.1954  -22.9536 N   0  0  0  0  0  0  0  0  0  0  0  0
  -18.7286   -4.8557  -26.1665 N   0  0  0  0  0  0  0  0  0  0  0  0
  -20.2857   -4.3675  -27.7176 N   0  0  0  0  0  0  0  0  0  0  0  0
  -21.8404   -4.0005  -29.5324 N   0  0  0  0  0  0  0  0  0  0  0  0
  -22.9728   -4.5000  -32.1869 N   0  0  0  0  0  0  0  0  0  0  0  0
  -20.6763   -4.7707  -31.9265 O   0  0  0  0  0  0  0  0  0  0  0  0
  -21.7345   -5.7558  -33.6967 O   0  0  0  0  0  0  0  0  0  0  0  0
  -27.7342   -5.6081  -22.5174 F   0  0  0  0  0  0  0  0  0  0  0  0
  -26.4472   -4.8911  -20.9257 F   0  0  0  0  0  0  0  0  0  0  0  0
  -27.5043   -3.4709  -22.1884 F   0  0  0  0  0  0  0  0  0  0  0  0
  -16.7164   -3.6232  -31.5304 Cl  0  0  0  0  0  0  0  0  0  0  0  0
  -24.5005   -6.1768  -25.9463 H   0  0  0  0  0  0  0  0  0  0  0  0
  -22.7757   -2.9050  -23.7230 H   0  0  0  0  0  0  0  0  0  0  0  0
  -26.3959   -6.2370  -24.3797 H   0  0  0  0  0  0  0  0  0  0  0  0
  -24.6739   -2.9719  -22.1596 H   0  0  0  0  0  0  0  0  0  0  0  0
  -16.0175   -4.9667  -26.9191 H   0  0  0  0  0  0  0  0  0  0  0  0
  -15.2707   -4.4302  -29.2095 H   0  0  0  0  0  0  0  0  0  0  0  0
  -19.3297   -3.6850  -30.4283 H   0  0  0  0  0  0  0  0  0  0  0  0
  -23.6370   -4.0751  -27.6113 H   0  0  0  0  0  0  0  0  0  0  0  0
  -24.0091   -5.0409  -34.6061 H   0  0  0  0  0  0  0  0  0  0  0  0
  -25.6729   -5.3951  -34.0292 H   0  0  0  0  0  0  0  0  0  0  0  0
  -24.9790   -3.7520  -33.8159 H   0  0  0  0  0  0  0  0  0  0  0  0
  -19.7361   -6.6045  -32.1101 H   0  0  0  0  0  0  0  0  0  0  0  0
  -20.6091   -8.0012  -32.7804 H   0  0  0  0  0  0  0  0  0  0  0  0
  -18.9586   -7.6162  -33.3149 H   0  0  0  0  0  0  0  0  0  0  0  0
  -21.1336   -6.4641  -36.1944 H   0  0  0  0  0  0  0  0  0  0  0  0
  -21.4870   -7.8781  -35.2173 H   0  0  0  0  0  0  0  0  0  0  0  0
  -19.8209   -7.5818  -35.7615 H   0  0  0  0  0  0  0  0  0  0  0  0
  -19.9275   -4.4859  -35.2133 H   0  0  0  0  0  0  0  0  0  0  0  0
  -19.3621   -4.5118  -33.5290 H   0  0  0  0  0  0  0  0  0  0  0  0
  -18.5599   -5.4947  -34.7750 H   0  0  0  0  0  0  0  0  0  0  0  0
  -24.9561   -5.0157  -31.7199 H   0  0  0  0  0  0  0  0  0  0  0  0
  -23.9919   -6.3099  -32.5086 H   0  0  0  0  0  0  0  0  0  0  0  0
  -23.8839   -4.1036  -29.6394 H   0  0  0  0  0  0  0  0  0  0  0  0
  -23.1974   -2.4721  -29.4785 H   0  0  0  0  0  0  0  0  0  0  0  0
  -24.0788   -2.8237  -31.7927 H   0  0  0  0  0  0  0  0  0  0  0  0
  -22.3183   -2.5886  -31.8261 H   0  0  0  0  0  0  0  0  0  0  0  0
  -21.1187   -4.2688  -30.1556 H   0  0  0  0  0  0  0  0  0  0  0  0
  1 16  1  0  0  0  0
  1 29  3  0  0  0  0
  2  4  1  0  0  0  0
  2  9  2  0  0  0  0
  3  5  2  0  0  0  0
  3  9  1  0  0  0  0
  4 10  2  0  0  0  0
  5 10  1  0  0  0  0
  6  7  1  0  0  0  0
  6 11  2  0  0  0  0
  7 13  2  0  0  0  0
  8 12  2  0  0  0  0
  8 13  1  0  0  0  0
  9 17  1  0  0  0  0
 10 27  1  0  0  0  0
 11 12  1  0  0  0  0
 11 30  1  0  0  0  0
 12 31  1  0  0  0  0
 13 39  1  0  0  0  0
 14 16  1  0  0  0  0
 14 30  2  0  0  0  0
 14 31  1  0  0  0  0
 15 17  1  0  0  0  0
 15 18  2  0  0  0  0
 16 17  2  0  0  0  0
 18 31  1  0  0  0  0
 18 32  1  0  0  0  0
 19 33  1  0  0  0  0
 19 34  2  0  0  0  0
 19 35  1  0  0  0  0
 20 24  1  0  0  0  0
 21 28  1  0  0  0  0
 22 28  1  0  0  0  0
 23 28  1  0  0  0  0
 24 33  1  0  0  0  0
 25 26  1  0  0  0  0
 25 32  1  0  0  0  0
 26 33  1  0  0  0  0
 27 36  1  0  0  0  0
 27 37  1  0  0  0  0
 27 38  1  0  0  0  0
 28 35  1  0  0  0  0
  2 40  1  0  0  0  0
  3 41  1  0  0  0  0
  4 42  1  0  0  0  0
  5 43  1  0  0  0  0
  6 44  1  0  0  0  0
  7 45  1  0  0  0  0
  8 46  1  0  0  0  0
 15 47  1  0  0  0  0
 20 48  1  0  0  0  0
 20 49  1  0  0  0  0
 20 50  1  0  0  0  0
 21 51  1  0  0  0  0
 21 52  1  0  0  0  0
 21 53  1  0  0  0  0
 22 54  1  0  0  0  0
 22 55  1  0  0  0  0
 22 56  1  0  0  0  0
 23 57  1  0  0  0  0
 23 58  1  0  0  0  0
 23 59  1  0  0  0  0
 24 60  1  0  0  0  0
 24 61  1  0  0  0  0
 25 62  1  0  0  0  0
 25 63  1  0  0  0  0
 26 64  1  0  0  0  0
 26 65  1  0  0  0  0
 32 66  1  0  0  0  0
M  END
> <SMILES>
CCN(CCNc1cc(c(c2nc3ccc(cc3n12)Cl)C#N)-c1ccc(cc1)C(F)(F)F)C(=O)OC(C)(C)C

> <FORMATTED_ID>
H3D-005142

> <MOLFORMULA>
C28H27ClF3N5O2

> <Exact Mass>
557.18

> <XLogP>
8.42

> <TPSA_NOPS>
82.7

> <s_m_source_file>
ligprep_h3d.sdf

> <i_m_source_file_index>
2311

> <i_lp_mmshare_version>
55123

> <i_f3d_flags>
0

> <s_epik_input>
W0NIM11DKFtDSDNdKShbQ0gzXSlPQyg9TylOKFtDSDJdW0NIM10pW0NIMl1bQ0gyXVtOSF1jKG4oYzEyKWMzYyhuMilbY0hdW2NIXWMoQ2wpW2NIXTMpW2NIXWMoYzFDI04pLWM0W2NIXVtjSF1jKEMoRikoRilGKVtjSF1bY0hdNA==

> <s_epik_cmdline>
J2VwaWtfcHl0aG9uJywgJy1waHQnLCAnMC41JywgJy1waCcsICc3LjUnLCAnLXRuJywgJzgnLCAnLW1hJywgJzUwMCcsICctaW1hZScsICc8aW5maWxlLm1hZT4nLCAnLW9tYWUnLCAnPG91dGZpbGUubWFlPic=

> <r_lp_tautomer_probability>
1

> <r_epik_Ionization_Penalty>
0.0005649

> <r_epik_Ionization_Penalty_Charging>
0

> <r_epik_Ionization_Penalty_Neutral>
0.0005649

> <r_epik_State_Penalty>
-0

> <r_epik_Charging_Adjusted_Penalty>
0

> <i_epik_Tot_Q>
0

> <i_epik_Tot_abs_Q>
0

> <s_epik_Chemistry_Notes>
This compound has an ester and may undergo hydrolysis at high or low pH.

> <s_lp_Force_Field>
S-OPLS

> <r_lp_Energy>
53.4338

> <b_lp_Chiralities_Consistent>
1

> <s_lp_Variant>
ligprep_h3d.sdf:2311-1

> <ROCS_ShapeQuery>
_7L13

> <ROCS_TanimotoCombo>
0.707 

> <ROCS_ShapeTanimoto>
0.582 

> <ROCS_ColorTanimoto>
0.125 

> <ROCS_RefTversky>
0.761 

> <ROCS_RefColorTversky>
0.223 

> <ROCS_RefTverskyCombo>
0.984 

> <ROCS_FitTversky>
0.712 

> <ROCS_FitColorTversky>
0.222 

> <ROCS_FitTverskyCombo>
0.934 

> <ROCS_ColorScore>
-2.004

> <ROCS_Overlap>
1268.593

> <ROCS_Rank>
728                 

$$$$
ligprep_h3d.sdf:3390_1134
  -OEChem-08212117123D

 65 68  0     0  0  0  0  0  0999 V2000
  -22.5643   -2.7268  -32.3906 C   0  0  0  0  0  0  0  0  0  0  0  0
  -23.0239   -2.8624  -31.0806 C   0  0  0  0  0  0  0  0  0  0  0  0
  -21.7336   -3.7018  -32.9428 C   0  0  0  0  0  0  0  0  0  0  0  0
  -21.8218   -4.9480  -30.8749 C   0  0  0  0  0  0  0  0  0  0  0  0
  -18.2217   -4.8940  -25.4770 C   0  0  0  0  0  0  0  0  0  0  0  0
  -18.1681   -3.4918  -27.4436 C   0  0  0  0  0  0  0  0  0  0  0  0
  -24.4169   -4.1955  -28.4941 C   0  0  0  0  0  0  0  0  0  0  0  0
  -22.6526   -3.9730  -30.3228 C   0  0  0  0  0  0  0  0  0  0  0  0
  -18.8913   -4.2119  -26.4928 C   0  0  0  0  0  0  0  0  0  0  0  0
  -21.3623   -4.8124  -32.1849 C   0  0  0  0  0  0  0  0  0  0  0  0
  -16.8289   -4.8558  -25.4118 C   0  0  0  0  0  0  0  0  0  0  0  0
  -16.7752   -3.4537  -27.3785 C   0  0  0  0  0  0  0  0  0  0  0  0
  -16.1057   -4.1357  -26.3626 C   0  0  0  0  0  0  0  0  0  0  0  0
  -23.1291   -4.1131  -28.9668 C   0  0  0  0  0  0  0  0  0  0  0  0
  -23.1737   -4.3192  -26.7574 C   0  0  0  0  0  0  0  0  0  0  0  0
  -21.2091   -4.3885  -25.3810 C   0  0  0  0  0  0  0  0  0  0  0  0
  -20.9399   -4.1581  -27.7667 C   0  0  0  0  0  0  0  0  0  0  0  0
  -20.3437   -4.2507  -26.5592 C   0  0  0  0  0  0  0  0  0  0  0  0
  -22.5537   -4.4201  -25.4768 C   0  0  0  0  0  0  0  0  0  0  0  0
  -23.0142   -4.0776  -23.1280 C   0  0  0  0  0  0  0  0  0  0  0  0
  -20.4960   -5.8284  -32.7615 C   0  0  0  0  0  0  0  0  0  0  0  0
  -16.1295   -5.5936  -24.3178 C   0  0  0  0  0  0  0  0  0  0  0  0
  -16.0184   -2.6766  -28.4050 C   0  0  0  0  0  0  0  0  0  0  0  0
  -19.2038   -8.8066  -37.0338 C   0  0  0  0  0  0  0  0  0  0  0  0
  -18.1426   -6.9687  -38.3363 C   0  0  0  0  0  0  0  0  0  0  0  0
  -19.7487   -6.9587  -34.8706 C   0  0  0  0  0  0  0  0  0  0  0  0
  -19.4151   -6.4490  -36.2600 C   0  0  0  0  0  0  0  0  0  0  0  0
  -24.4389   -4.3229  -27.1292 N   0  0  0  0  0  0  0  0  0  0  0  0
  -22.3292   -4.1914  -27.8553 N   0  0  0  0  0  0  0  0  0  0  0  0
  -23.3530   -4.5470  -24.3787 N   0  0  0  0  0  0  0  0  0  0  0  0
  -20.5318   -5.9790  -34.1526 N   0  0  0  0  0  0  0  0  0  0  0  0
  -18.5671   -7.4402  -36.9671 N   0  3  0  0  0  0  0  0  0  0  0  0
  -21.9926   -3.4934  -22.7888 O   0  0  0  0  0  0  0  0  0  0  0  0
  -19.7789   -6.5351  -32.0312 O   0  0  0  0  0  0  0  0  0  0  0  0
  -14.7438   -4.0983  -26.2989 O   0  0  0  0  0  0  0  0  0  0  0  0
  -22.8524   -1.8614  -32.9805 H   0  0  0  0  0  0  0  0  0  0  0  0
  -23.6713   -2.0942  -30.6641 H   0  0  0  0  0  0  0  0  0  0  0  0
  -21.3821   -3.5861  -33.9649 H   0  0  0  0  0  0  0  0  0  0  0  0
  -21.5286   -5.8157  -30.2871 H   0  0  0  0  0  0  0  0  0  0  0  0
  -18.7809   -5.4570  -24.7323 H   0  0  0  0  0  0  0  0  0  0  0  0
  -18.6858   -2.9573  -28.2377 H   0  0  0  0  0  0  0  0  0  0  0  0
  -25.3345   -4.1701  -29.0648 H   0  0  0  0  0  0  0  0  0  0  0  0
  -20.7172   -4.4641  -24.4146 H   0  0  0  0  0  0  0  0  0  0  0  0
  -20.3807   -4.0552  -28.6906 H   0  0  0  0  0  0  0  0  0  0  0  0
  -23.8179   -4.2972  -22.4054 H   0  0  0  0  0  0  0  0  0  0  0  0
  -15.9007   -6.6174  -24.6358 H   0  0  0  0  0  0  0  0  0  0  0  0
  -15.1920   -5.0960  -24.0404 H   0  0  0  0  0  0  0  0  0  0  0  0
  -16.7471   -5.6385  -23.4121 H   0  0  0  0  0  0  0  0  0  0  0  0
  -15.8766   -1.6424  -28.0703 H   0  0  0  0  0  0  0  0  0  0  0  0
  -15.0334   -3.1215  -28.5924 H   0  0  0  0  0  0  0  0  0  0  0  0
  -16.5506   -2.6638  -29.3643 H   0  0  0  0  0  0  0  0  0  0  0  0
  -20.1294   -8.7161  -37.6052 H   0  0  0  0  0  0  0  0  0  0  0  0
  -18.5008   -9.4790  -37.5292 H   0  0  0  0  0  0  0  0  0  0  0  0
  -19.4042   -9.1322  -36.0113 H   0  0  0  0  0  0  0  0  0  0  0  0
  -19.0437   -6.8357  -38.9378 H   0  0  0  0  0  0  0  0  0  0  0  0
  -17.6092   -6.0241  -38.2140 H   0  0  0  0  0  0  0  0  0  0  0  0
  -17.4931   -7.7335  -38.7665 H   0  0  0  0  0  0  0  0  0  0  0  0
  -20.3110   -7.8973  -34.9151 H   0  0  0  0  0  0  0  0  0  0  0  0
  -18.8281   -7.1399  -34.3065 H   0  0  0  0  0  0  0  0  0  0  0  0
  -18.8397   -5.5201  -36.2155 H   0  0  0  0  0  0  0  0  0  0  0  0
  -20.3078   -6.3000  -36.8749 H   0  0  0  0  0  0  0  0  0  0  0  0
  -24.2483   -5.0138  -24.4890 H   0  0  0  0  0  0  0  0  0  0  0  0
  -21.1815   -5.4196  -34.6956 H   0  0  0  0  0  0  0  0  0  0  0  0
  -17.6957   -7.5570  -36.4220 H   0  0  0  0  0  0  0  0  0  0  0  0
  -14.3906   -3.5609  -27.0245 H   0  0  0  0  0  0  0  0  0  0  0  0
  1  2  2  0  0  0  0
  1  3  1  0  0  0  0
  2  8  1  0  0  0  0
  3 10  2  0  0  0  0
  4  8  2  0  0  0  0
  4 10  1  0  0  0  0
  5  9  2  0  0  0  0
  5 11  1  0  0  0  0
  6  9  1  0  0  0  0
  6 12  2  0  0  0  0
  7 14  2  0  0  0  0
  7 28  1  0  0  0  0
  8 14  1  0  0  0  0
  9 18  1  0  0  0  0
 10 21  1  0  0  0  0
 11 13  2  0  0  0  0
 11 22  1  0  0  0  0
 12 13  1  0  0  0  0
 12 23  1  0  0  0  0
 13 35  1  0  0  0  0
 14 29  1  0  0  0  0
 15 19  1  0  0  0  0
 15 28  2  0  0  0  0
 15 29  1  0  0  0  0
 16 18  1  0  0  0  0
 16 19  2  0  0  0  0
 17 18  2  0  0  0  0
 17 29  1  0  0  0  0
 19 30  1  0  0  0  0
 20 30  1  0  0  0  0
 20 33  2  0  0  0  0
 21 31  1  0  0  0  0
 21 34  2  0  0  0  0
 24 32  1  0  0  0  0
 25 32  1  0  0  0  0
 26 27  1  0  0  0  0
 26 31  1  0  0  0  0
 27 32  1  0  0  0  0
  1 36  1  0  0  0  0
  2 37  1  0  0  0  0
  3 38  1  0  0  0  0
  4 39  1  0  0  0  0
  5 40  1  0  0  0  0
  6 41  1  0  0  0  0
  7 42  1  0  0  0  0
 16 43  1  0  0  0  0
 17 44  1  0  0  0  0
 20 45  1  0  0  0  0
 22 46  1  0  0  0  0
 22 47  1  0  0  0  0
 22 48  1  0  0  0  0
 23 49  1  0  0  0  0
 23 50  1  0  0  0  0
 23 51  1  0  0  0  0
 24 52  1  0  0  0  0
 24 53  1  0  0  0  0
 24 54  1  0  0  0  0
 25 55  1  0  0  0  0
 25 56  1  0  0  0  0
 25 57  1  0  0  0  0
 26 58  1  0  0  0  0
 26 59  1  0  0  0  0
 27 60  1  0  0  0  0
 27 61  1  0  0  0  0
 30 62  1  0  0  0  0
 31 63  1  0  0  0  0
 32 64  1  0  0  0  0
 35 65  1  0  0  0  0
M  CHG  1  32   1
M  END
> <SMILES>
CN(C)CCNC(=O)c1cccc(c1)-c1cnc2c(cc(cn12)-c1cc(c(c(c1)C)O)C)NC=O

> <FORMATTED_ID>
H3D-001921

> <MOLFORMULA>
C27H29N5O3

> <Exact Mass>
471.23

> <XLogP>
4.15

> <TPSA_NOPS>
99

> <s_m_source_file>
ligprep_h3d.sdf

> <i_m_source_file_index>
3390

> <i_lp_mmshare_version>
55123

> <i_f3d_flags>
0

> <s_epik_input>
W0NIM11OKFtDSDNdKVtDSDJdW0NIMl1bTkhdQyg9TyljMVtjSF1bY0hdW2NIXWMoW2NIXTEpLWMoW2NIXW4yKW4oYzIzKVtjSF1jKFtjSF1jM1tOSF1bQ0hdPU8pLWM0W2NIXWMoW0NIM10pYyhbT0hdKWMoW2NIXTQpW0NIM10=

> <s_epik_cmdline>
J2VwaWtfcHl0aG9uJywgJy1waHQnLCAnMC41JywgJy1waCcsICc3LjUnLCAnLXRuJywgJzgnLCAnLW1hJywgJzUwMCcsICctaW1hZScsICc8aW5maWxlLm1hZT4nLCAnLW9tYWUnLCAnPG91dGZpbGUubWFlPic=

> <r_lp_tautomer_probability>
1

> <r_epik_Ionization_Penalty>
0.0208443

> <r_epik_Ionization_Penalty_Charging>
0.0200271

> <r_epik_Ionization_Penalty_Neutral>
0.000817139

> <r_epik_State_Penalty>
0.013778

> <r_epik_Charging_Adjusted_Penalty>
0.0338052

> <i_epik_Tot_Q>
1

> <i_epik_Tot_abs_Q>
1

> <s_lp_Force_Field>
S-OPLS

> <r_lp_Energy>
55.4566

> <b_lp_Chiralities_Consistent>
1

> <s_lp_Variant>
ligprep_h3d.sdf:3390-1

> <ROCS_ShapeQuery>
_7L13

> <ROCS_TanimotoCombo>
0.751 

> <ROCS_ShapeTanimoto>
0.630 

> <ROCS_ColorTanimoto>
0.121 

> <ROCS_RefTversky>
0.761 

> <ROCS_RefColorTversky>
0.258 

> <ROCS_RefTverskyCombo>
1.019 

> <ROCS_FitTversky>
0.786 

> <ROCS_FitColorTversky>
0.185 

> <ROCS_FitTverskyCombo>
0.971 

> <ROCS_ColorScore>
-2.377

> <ROCS_Overlap>
1261.483

> <ROCS_Rank>
729                 

$$$$
ligprep_h3d.sdf:5051_1750
  -OEChem-08212117123D

 65 69  0     0  0  0  0  0  0999 V2000
  -19.2780   -5.5233  -34.8206 C   0  0  0  0  0  0  0  0  0  0  0  0
  -20.2616   -6.4596  -34.5019 C   0  0  0  0  0  0  0  0  0  0  0  0
  -19.2111   -4.3172  -34.1230 C   0  0  0  0  0  0  0  0  0  0  0  0
  -21.1782   -6.1899  -33.4858 C   0  0  0  0  0  0  0  0  0  0  0  0
  -20.1277   -4.0474  -33.1068 C   0  0  0  0  0  0  0  0  0  0  0  0
  -18.7159   -6.2520  -25.4082 C   0  0  0  0  0  0  0  0  0  0  0  0
  -23.6525   -3.9268  -27.7706 C   0  0  0  0  0  0  0  0  0  0  0  0
  -20.9560   -4.3574  -28.4572 C   0  0  0  0  0  0  0  0  0  0  0  0
  -18.3667   -3.9432  -26.0003 C   0  0  0  0  0  0  0  0  0  0  0  0
  -17.3477   -6.3773  -25.2140 C   0  0  0  0  0  0  0  0  0  0  0  0
  -22.7183   -4.2962  -26.8103 C   0  0  0  0  0  0  0  0  0  0  0  0
  -21.1113   -4.9838  -32.7882 C   0  0  0  0  0  0  0  0  0  0  0  0
  -19.2265   -5.0200  -25.8056 C   0  0  0  0  0  0  0  0  0  0  0  0
  -21.3692   -4.4962  -27.1379 C   0  0  0  0  0  0  0  0  0  0  0  0
  -23.2300   -3.7753  -29.0897 C   0  0  0  0  0  0  0  0  0  0  0  0
  -21.8909   -3.9935  -29.4314 C   0  0  0  0  0  0  0  0  0  0  0  0
  -17.0073   -4.1268  -25.7910 C   0  0  0  0  0  0  0  0  0  0  0  0
  -23.0812   -3.1408  -24.6196 C   0  0  0  0  0  0  0  0  0  0  0  0
  -24.1337   -5.4042  -25.0134 C   0  0  0  0  0  0  0  0  0  0  0  0
  -21.5807   -5.2019  -24.9598 C   0  0  0  0  0  0  0  0  0  0  0  0
  -23.3777   -3.2699  -23.1289 C   0  0  0  0  0  0  0  0  0  0  0  0
  -24.3782   -5.5382  -23.5160 C   0  0  0  0  0  0  0  0  0  0  0  0
  -22.9279   -4.5024  -25.3299 C   0  0  0  0  0  0  0  0  0  0  0  0
  -16.0245   -3.0289  -25.9780 C   0  0  0  0  0  0  0  0  0  0  0  0
  -24.9638   -4.2400  -21.4704 C   0  0  0  0  0  0  0  0  0  0  0  0
  -24.3087   -2.0183  -30.2752 C   0  0  0  0  0  0  0  0  0  0  0  0
  -22.0972   -4.6929  -31.6951 C   0  0  0  0  0  0  0  0  0  0  0  0
  -16.5424   -5.3240  -25.4086 N   0  3  0  0  0  0  0  0  0  0  0  0
  -20.6007   -4.8645  -26.0105 N   0  0  0  0  0  0  0  0  0  0  0  0
  -24.5736   -4.1649  -22.9213 N   0  3  0  0  0  0  0  0  0  0  0  0
  -24.1348   -3.4145  -30.0430 O   0  0  0  0  0  0  0  0  0  0  0  0
  -21.4805   -3.8507  -30.7242 O   0  0  0  0  0  0  0  0  0  0  0  0
  -18.5635   -5.7340  -35.6110 H   0  0  0  0  0  0  0  0  0  0  0  0
  -20.3132   -7.3992  -35.0443 H   0  0  0  0  0  0  0  0  0  0  0  0
  -18.4448   -3.5884  -34.3701 H   0  0  0  0  0  0  0  0  0  0  0  0
  -21.9413   -6.9252  -33.2445 H   0  0  0  0  0  0  0  0  0  0  0  0
  -20.0680   -3.1051  -32.5688 H   0  0  0  0  0  0  0  0  0  0  0  0
  -19.3669   -7.1065  -25.2505 H   0  0  0  0  0  0  0  0  0  0  0  0
  -24.6897   -3.7537  -27.5021 H   0  0  0  0  0  0  0  0  0  0  0  0
  -19.9187   -4.5226  -28.7341 H   0  0  0  0  0  0  0  0  0  0  0  0
  -18.7504   -2.9759  -26.3126 H   0  0  0  0  0  0  0  0  0  0  0  0
  -16.8637   -7.2937  -24.9065 H   0  0  0  0  0  0  0  0  0  0  0  0
  -23.8961   -2.5703  -25.0866 H   0  0  0  0  0  0  0  0  0  0  0  0
  -22.1771   -2.5321  -24.7506 H   0  0  0  0  0  0  0  0  0  0  0  0
  -23.9951   -6.4020  -25.4492 H   0  0  0  0  0  0  0  0  0  0  0  0
  -25.0430   -5.0006  -25.4781 H   0  0  0  0  0  0  0  0  0  0  0  0
  -21.2081   -4.9001  -23.9748 H   0  0  0  0  0  0  0  0  0  0  0  0
  -21.7058   -6.2938  -24.9403 H   0  0  0  0  0  0  0  0  0  0  0  0
  -22.5393   -3.7005  -22.5720 H   0  0  0  0  0  0  0  0  0  0  0  0
  -23.6242   -2.2909  -22.7042 H   0  0  0  0  0  0  0  0  0  0  0  0
  -25.2932   -6.1098  -23.3281 H   0  0  0  0  0  0  0  0  0  0  0  0
  -23.5392   -6.0133  -22.9963 H   0  0  0  0  0  0  0  0  0  0  0  0
  -15.8829   -2.4713  -25.0417 H   0  0  0  0  0  0  0  0  0  0  0  0
  -15.0453   -3.4130  -26.2998 H   0  0  0  0  0  0  0  0  0  0  0  0
  -16.3523   -2.3203  -26.7530 H   0  0  0  0  0  0  0  0  0  0  0  0
  -24.1365   -4.6983  -20.9255 H   0  0  0  0  0  0  0  0  0  0  0  0
  -25.1484   -3.2224  -21.1209 H   0  0  0  0  0  0  0  0  0  0  0  0
  -25.8666   -4.8496  -21.3984 H   0  0  0  0  0  0  0  0  0  0  0  0
  -25.0565   -1.8687  -31.0578 H   0  0  0  0  0  0  0  0  0  0  0  0
  -23.3558   -1.5769  -30.5779 H   0  0  0  0  0  0  0  0  0  0  0  0
  -24.6507   -1.5444  -29.3521 H   0  0  0  0  0  0  0  0  0  0  0  0
  -22.9852   -4.1893  -32.0922 H   0  0  0  0  0  0  0  0  0  0  0  0
  -22.4241   -5.6195  -31.2111 H   0  0  0  0  0  0  0  0  0  0  0  0
  -15.5407   -5.4429  -25.2586 H   0  0  0  0  0  0  0  0  0  0  0  0
  -25.3674   -3.7307  -23.4121 H   0  0  0  0  0  0  0  0  0  0  0  0
  1  2  2  0  0  0  0
  1  3  1  0  0  0  0
  2  4  1  0  0  0  0
  3  5  2  0  0  0  0
  4 12  2  0  0  0  0
  5 12  1  0  0  0  0
  6 10  1  0  0  0  0
  6 13  2  0  0  0  0
  7 11  1  0  0  0  0
  7 15  2  0  0  0  0
  8 14  1  0  0  0  0
  8 16  2  0  0  0  0
  9 13  1  0  0  0  0
  9 17  2  0  0  0  0
 10 28  2  0  0  0  0
 11 14  2  0  0  0  0
 11 23  1  0  0  0  0
 12 27  1  0  0  0  0
 13 29  1  0  0  0  0
 14 29  1  0  0  0  0
 15 16  1  0  0  0  0
 15 31  1  0  0  0  0
 16 32  1  0  0  0  0
 17 24  1  0  0  0  0
 17 28  1  0  0  0  0
 18 21  1  0  0  0  0
 18 23  1  0  0  0  0
 19 22  1  0  0  0  0
 19 23  1  0  0  0  0
 20 23  1  0  0  0  0
 20 29  1  0  0  0  0
 21 30  1  0  0  0  0
 22 30  1  0  0  0  0
 25 30  1  0  0  0  0
 26 31  1  0  0  0  0
 27 32  1  0  0  0  0
  1 33  1  0  0  0  0
  2 34  1  0  0  0  0
  3 35  1  0  0  0  0
  4 36  1  0  0  0  0
  5 37  1  0  0  0  0
  6 38  1  0  0  0  0
  7 39  1  0  0  0  0
  8 40  1  0  0  0  0
  9 41  1  0  0  0  0
 10 42  1  0  0  0  0
 18 43  1  0  0  0  0
 18 44  1  0  0  0  0
 19 45  1  0  0  0  0
 19 46  1  0  0  0  0
 20 47  1  0  0  0  0
 20 48  1  0  0  0  0
 21 49  1  0  0  0  0
 21 50  1  0  0  0  0
 22 51  1  0  0  0  0
 22 52  1  0  0  0  0
 24 53  1  0  0  0  0
 24 54  1  0  0  0  0
 24 55  1  0  0  0  0
 25 56  1  0  0  0  0
 25 57  1  0  0  0  0
 25 58  1  0  0  0  0
 26 59  1  0  0  0  0
 26 60  1  0  0  0  0
 26 61  1  0  0  0  0
 27 62  1  0  0  0  0
 27 63  1  0  0  0  0
 28 64  1  0  0  0  0
 30 65  1  0  0  0  0
M  CHG  2  28   1  30   1
M  END
> <SMILES>
COc1cc2c(cc1OCc1ccccc1)N(CC12CCN(C)CC1)c1ccnc(c1)C

> <FORMATTED_ID>
H3D-009399

> <MOLFORMULA>
C27H31N3O2

> <Exact Mass>
429.24

> <XLogP>
5.09

> <TPSA_NOPS>
37.8

> <s_m_source_file>
ligprep_h3d.sdf

> <i_m_source_file_index>
5051

> <i_lp_mmshare_version>
55123

> <i_f3d_flags>
0

> <s_epik_input>
W2NIXTFbY0hdW2NIXVtjSF1bY0hdYzFbQ0gyXU9jKGMoW2NIXTIpT1tDSDNdKVtjSF1jKGMyQzM0W0NIMl1bQ0gyXU4oW0NIM10pW0NIMl1bQ0gyXTQpTihbQ0gyXTMpYzVbY0hdW2NIXW5jKFtjSF01KVtDSDNd

> <s_epik_cmdline>
J2VwaWtfcHl0aG9uJywgJy1waHQnLCAnMC41JywgJy1waCcsICc3LjUnLCAnLXRuJywgJzgnLCAnLW1hJywgJzUwMCcsICctaW1hZScsICc8aW5maWxlLm1hZT4nLCAnLW9tYWUnLCAnPG91dGZpbGUubWFlPic=

> <r_lp_tautomer_probability>
1

> <r_epik_Ionization_Penalty>
0.436187

> <r_epik_Ionization_Penalty_Charging>
0.436187

> <r_epik_Ionization_Penalty_Neutral>
3.085e-10

> <r_epik_State_Penalty>
0.429238

> <r_epik_Charging_Adjusted_Penalty>
0.865425

> <i_epik_Tot_Q>
2

> <i_epik_Tot_abs_Q>
2

> <s_lp_Force_Field>
S-OPLS

> <r_lp_Energy>
75.9013

> <b_lp_Chiralities_Consistent>
1

> <s_lp_Variant>
ligprep_h3d.sdf:5051-2

> <ROCS_ShapeQuery>
_7L13

> <ROCS_TanimotoCombo>
0.775 

> <ROCS_ShapeTanimoto>
0.672 

> <ROCS_ColorTanimoto>
0.103 

> <ROCS_RefTversky>
0.761 

> <ROCS_RefColorTversky>
0.205 

> <ROCS_RefTverskyCombo>
0.966 

> <ROCS_FitTversky>
0.852 

> <ROCS_FitColorTversky>
0.171 

> <ROCS_FitTverskyCombo>
1.023 

> <ROCS_ColorScore>
-1.864

> <ROCS_Overlap>
1256.184

> <ROCS_Rank>
730                 

$$$$
ligprep_h3d.sdf:4745_1743
  -OEChem-08212117123D

 61 65  0     1  0  0  0  0  0999 V2000
  -24.9762   -5.0392  -22.5553 C   0  0  0  0  0  0  0  0  0  0  0  0
  -23.6639   -4.7911  -22.9577 C   0  0  0  0  0  0  0  0  0  0  0  0
  -26.0318   -4.8075  -23.4372 C   0  0  0  0  0  0  0  0  0  0  0  0
  -20.1052   -4.2281  -34.1629 C   0  0  0  0  0  0  0  0  0  0  0  0
  -20.4418   -6.1023  -32.6758 C   0  0  0  0  0  0  0  0  0  0  0  0
  -17.0919   -6.2442  -26.0920 C   0  0  0  0  0  0  0  0  0  0  0  0
  -16.9278   -3.8914  -25.5679 C   0  0  0  0  0  0  0  0  0  0  0  0
  -23.4072   -4.3113  -24.2420 C   0  0  0  0  0  0  0  0  0  0  0  0
  -25.7751   -4.3277  -24.7215 C   0  0  0  0  0  0  0  0  0  0  0  0
  -19.6008   -5.0908  -35.1360 C   0  0  0  0  0  0  0  0  0  0  0  0
  -19.9373   -6.9650  -33.6490 C   0  0  0  0  0  0  0  0  0  0  0  0
  -15.8329   -6.4571  -25.5306 C   0  0  0  0  0  0  0  0  0  0  0  0
  -15.6688   -4.1043  -25.0064 C   0  0  0  0  0  0  0  0  0  0  0  0
  -20.5257   -4.7339  -32.9327 C   0  0  0  0  0  0  0  0  0  0  0  0
  -17.6394   -4.9613  -26.1107 C   0  0  0  0  0  0  0  0  0  0  0  0
  -24.4628   -4.0796  -25.1239 C   0  0  0  0  0  0  0  0  0  0  0  0
  -19.5168   -6.4592  -34.8790 C   0  0  0  0  0  0  0  0  0  0  0  0
  -15.1214   -5.3872  -24.9878 C   0  0  0  0  0  0  0  0  0  0  0  0
  -22.0868   -4.4815  -31.0023 C   0  0  0  0  0  0  0  0  0  0  0  0
  -22.6903   -5.1067  -28.6792 C   0  0  0  0  0  0  0  0  0  0  0  0
  -19.8303   -5.6399  -27.2863 C   0  0  0  0  0  0  0  0  0  0  0  0
  -19.8345   -3.6783  -26.5328 C   0  0  0  0  0  0  0  0  0  0  0  0
  -20.6085   -3.9020  -29.0267 C   0  0  0  0  0  0  0  0  0  0  0  0
  -22.2115   -4.6150  -27.3171 C   0  0  1  0  0  0  0  0  0  0  0  0
  -20.7181   -4.3980  -27.5811 C   0  0  0  0  0  0  0  0  0  0  0  0
  -21.0686   -3.8066  -31.8865 C   0  0  0  0  0  0  0  0  0  0  0  0
  -22.9065   -3.3146  -26.9179 C   0  0  0  0  0  0  0  0  0  0  0  0
  -18.9047   -4.7473  -26.6749 N   0  0  0  0  0  0  0  0  0  0  0  0
  -21.7964   -4.4837  -29.6473 N   0  0  0  0  0  0  0  0  0  0  0  0
  -24.2060   -3.5992  -26.4102 N   0  0  0  0  0  0  0  0  0  0  0  0
  -23.0961   -4.9910  -31.4923 O   0  0  0  0  0  0  0  0  0  0  0  0
  -19.0258   -7.3010  -35.8292 O   0  0  0  0  0  0  0  0  0  0  0  0
  -13.9123   -5.5916  -24.4487 F   0  0  0  0  0  0  0  0  0  0  0  0
  -25.1760   -5.4126  -21.5550 H   0  0  0  0  0  0  0  0  0  0  0  0
  -22.8423   -4.9715  -22.2710 H   0  0  0  0  0  0  0  0  0  0  0  0
  -27.0537   -5.0007  -23.1236 H   0  0  0  0  0  0  0  0  0  0  0  0
  -20.1669   -3.1635  -34.3715 H   0  0  0  0  0  0  0  0  0  0  0  0
  -20.7670   -6.5052  -31.7201 H   0  0  0  0  0  0  0  0  0  0  0  0
  -17.6379   -7.0851  -26.5119 H   0  0  0  0  0  0  0  0  0  0  0  0
  -17.3448   -2.8876  -25.5773 H   0  0  0  0  0  0  0  0  0  0  0  0
  -22.3811   -4.1211  -24.5458 H   0  0  0  0  0  0  0  0  0  0  0  0
  -26.6057   -4.1510  -25.4002 H   0  0  0  0  0  0  0  0  0  0  0  0
  -19.2750   -4.6907  -36.0925 H   0  0  0  0  0  0  0  0  0  0  0  0
  -19.8749   -8.0298  -33.4429 H   0  0  0  0  0  0  0  0  0  0  0  0
  -15.4065   -7.4557  -25.5157 H   0  0  0  0  0  0  0  0  0  0  0  0
  -15.1142   -3.2716  -24.5840 H   0  0  0  0  0  0  0  0  0  0  0  0
  -22.5533   -6.1904  -28.7741 H   0  0  0  0  0  0  0  0  0  0  0  0
  -23.7362   -4.8723  -28.9007 H   0  0  0  0  0  0  0  0  0  0  0  0
  -20.2431   -6.3614  -26.5725 H   0  0  0  0  0  0  0  0  0  0  0  0
  -19.4139   -6.1683  -28.1481 H   0  0  0  0  0  0  0  0  0  0  0  0
  -19.4236   -2.7089  -26.8259 H   0  0  0  0  0  0  0  0  0  0  0  0
  -20.2506   -3.6237  -25.5213 H   0  0  0  0  0  0  0  0  0  0  0  0
  -20.6956   -2.8122  -29.0915 H   0  0  0  0  0  0  0  0  0  0  0  0
  -19.6997   -4.2247  -29.5425 H   0  0  0  0  0  0  0  0  0  0  0  0
  -22.3936   -5.3666  -26.5411 H   0  0  0  0  0  0  0  0  0  0  0  0
  -20.2584   -3.4307  -31.2594 H   0  0  0  0  0  0  0  0  0  0  0  0
  -21.5361   -2.9348  -32.3468 H   0  0  0  0  0  0  0  0  0  0  0  0
  -22.2911   -2.8415  -26.1547 H   0  0  0  0  0  0  0  0  0  0  0  0
  -22.9702   -2.6959  -27.8113 H   0  0  0  0  0  0  0  0  0  0  0  0
  -25.0194   -3.4469  -27.0123 H   0  0  0  0  0  0  0  0  0  0  0  0
  -19.0308   -8.2152  -35.5037 H   0  0  0  0  0  0  0  0  0  0  0  0
  1  2  2  0  0  0  0
  1  3  1  0  0  0  0
  2  8  1  0  0  0  0
  3  9  2  0  0  0  0
  4 10  1  0  0  0  0
  4 14  2  0  0  0  0
  5 11  2  0  0  0  0
  5 14  1  0  0  0  0
  6 12  1  0  0  0  0
  6 15  2  0  0  0  0
  7 13  2  0  0  0  0
  7 15  1  0  0  0  0
  8 16  2  0  0  0  0
  9 16  1  0  0  0  0
 10 17  2  0  0  0  0
 11 17  1  0  0  0  0
 12 18  2  0  0  0  0
 13 18  1  0  0  0  0
 14 26  1  0  0  0  0
 15 28  1  0  0  0  0
 16 30  1  0  0  0  0
 17 32  1  0  0  0  0
 18 33  1  0  0  0  0
 19 26  1  0  0  0  0
 19 29  1  0  0  0  0
 19 31  2  0  0  0  0
 20 24  1  0  0  0  0
 20 29  1  0  0  0  0
 21 25  1  0  0  0  0
 21 28  1  0  0  0  0
 22 25  1  0  0  0  0
 22 28  1  0  0  0  0
 23 25  1  0  0  0  0
 23 29  1  0  0  0  0
 24 25  1  0  0  0  0
 24 27  1  0  0  0  0
 27 30  1  0  0  0  0
  1 34  1  0  0  0  0
  2 35  1  0  0  0  0
  3 36  1  0  0  0  0
  4 37  1  0  0  0  0
  5 38  1  0  0  0  0
  6 39  1  0  0  0  0
  7 40  1  0  0  0  0
  8 41  1  0  0  0  0
  9 42  1  0  0  0  0
 10 43  1  0  0  0  0
 11 44  1  0  0  0  0
 12 45  1  0  0  0  0
 13 46  1  0  0  0  0
 20 47  1  0  0  0  0
 20 48  1  0  0  0  0
 21 49  1  0  0  0  0
 21 50  1  0  0  0  0
 22 51  1  0  0  0  0
 22 52  1  0  0  0  0
 23 53  1  0  0  0  0
 23 54  1  0  0  0  0
 24 55  1  0  0  0  0
 26 56  1  0  0  0  0
 26 57  1  0  0  0  0
 27 58  1  0  0  0  0
 27 59  1  0  0  0  0
 30 60  1  0  0  0  0
 32 61  1  0  0  0  0
M  END
> <SMILES>
Oc1ccc(cc1)CC(=O)N1C[C@H](CNc2ccccc2)C2(C1)CN(C2)c1ccc(cc1)F

> <FORMATTED_ID>
H3D-007249

> <MOLFORMULA>
C27H28FN3O2

> <Exact Mass>
445.22

> <XLogP>
3.92

> <TPSA_NOPS>
55.8

> <s_m_source_file>
ligprep_h3d.sdf

> <i_m_source_file_index>
4745

> <i_lp_mmshare_version>
55123

> <i_f3d_flags>
0

> <s_epik_input>
W09IXWMxW2NIXVtjSF1jKFtjSF1bY0hdMSlbQ0gyXUMoPU8pTihbQ0gyXTIpW0NIMl1bQ0BIXShbQ0gyXVtOSF1jM1tjSF1bY0hdW2NIXVtjSF1bY0hdMylDMjRbQ0gyXU4oW0NIMl00KWM1W2NIXVtjSF1jKEYpW2NIXVtjSF01

> <s_epik_cmdline>
J2VwaWtfcHl0aG9uJywgJy1waHQnLCAnMC41JywgJy1waCcsICc3LjUnLCAnLXRuJywgJzgnLCAnLW1hJywgJzUwMCcsICctaW1hZScsICc8aW5maWxlLm1hZT4nLCAnLW9tYWUnLCAnPG91dGZpbGUubWFlPic=

> <r_lp_tautomer_probability>
1

> <r_epik_Ionization_Penalty>
0.00557456

> <r_epik_Ionization_Penalty_Charging>
0

> <r_epik_Ionization_Penalty_Neutral>
0.00557456

> <r_epik_State_Penalty>
-0

> <r_epik_Charging_Adjusted_Penalty>
0

> <i_epik_Tot_Q>
0

> <i_epik_Tot_abs_Q>
0

> <s_lp_Force_Field>
S-OPLS

> <r_lp_Energy>
43.0326

> <b_lp_Chiralities_Consistent>
1

> <s_lp_Variant>
ligprep_h3d.sdf:4745-1

> <ROCS_ShapeQuery>
_7L13

> <ROCS_TanimotoCombo>
0.725 

> <ROCS_ShapeTanimoto>
0.658 

> <ROCS_ColorTanimoto>
0.067 

> <ROCS_RefTversky>
0.761 

> <ROCS_RefColorTversky>
0.125 

> <ROCS_RefTverskyCombo>
0.886 

> <ROCS_FitTversky>
0.830 

> <ROCS_FitColorTversky>
0.125 

> <ROCS_FitTverskyCombo>
0.955 

> <ROCS_ColorScore>
-1.125

> <ROCS_Overlap>
1257.755

> <ROCS_Rank>
731                 

$$$$
ligprep_h3d.sdf:1053_7
  -OEChem-08212117123D

 60 65  0     1  0  0  0  0  0999 V2000
  -20.9661   -5.1397  -29.5004 C   0  0  0  0  0  0  0  0  0  0  0  0
  -21.7397   -4.3825  -30.3826 C   0  0  0  0  0  0  0  0  0  0  0  0
  -21.0834   -4.8955  -28.1109 C   0  0  0  0  0  0  0  0  0  0  0  0
  -21.9833   -3.9416  -27.5794 C   0  0  0  0  0  0  0  0  0  0  0  0
  -22.5893   -3.4320  -29.8607 C   0  0  0  0  0  0  0  0  0  0  0  0
  -22.7409   -3.1770  -28.4975 C   0  0  0  0  0  0  0  0  0  0  0  0
  -21.9327   -4.2777  -31.7727 C   0  0  0  0  0  0  0  0  0  0  0  0
  -21.2792   -5.0482  -32.7875 C   0  0  0  0  0  0  0  0  0  0  0  0
  -18.9018   -3.7823  -26.2357 C   0  0  0  0  0  0  0  0  0  0  0  0
  -19.2103   -5.9936  -25.0044 C   0  0  0  0  0  0  0  0  0  0  0  0
  -17.0405   -5.1040  -25.8243 C   0  0  0  0  0  0  0  0  0  0  0  0
  -20.2244   -5.7143  -27.1848 C   0  0  0  0  0  0  0  0  0  0  0  0
  -23.0677   -2.8120  -25.6478 C   0  0  0  0  0  0  0  0  0  0  0  0
  -21.1959   -4.4528  -25.2334 C   0  0  2  0  0  0  0  0  0  0  0  0
  -20.3075   -6.8316  -33.8569 C   0  0  2  0  0  0  0  0  0  0  0  0
  -20.3100   -5.6037  -34.7927 C   0  0  2  0  0  0  0  0  0  0  0  0
  -23.4342   -3.1321  -24.1957 C   0  0  1  0  0  0  0  0  0  0  0  0
  -21.0521   -3.5126  -24.0006 C   0  0  2  0  0  0  0  0  0  0  0  0
  -19.8641   -4.9431  -25.8910 C   0  0  2  0  0  0  0  0  0  0  0  0
  -21.2253   -7.9416  -34.3404 C   0  0  0  0  0  0  0  0  0  0  0  0
  -18.9138   -5.0716  -35.0678 C   0  0  0  0  0  0  0  0  0  0  0  0
  -24.4020   -4.3082  -24.0797 C   0  0  0  0  0  0  0  0  0  0  0  0
  -20.0864   -3.9667  -22.9134 C   0  0  0  0  0  0  0  0  0  0  0  0
  -22.8272   -3.3371  -32.0907 N   0  0  0  0  0  0  0  0  0  0  0  0
  -17.6350   -4.1141  -26.4915 N   0  5  0  0  0  0  0  0  0  0  0  0
  -20.8593   -6.2921  -32.6036 N   0  0  0  0  0  0  0  0  0  0  0  0
  -17.8311   -5.9609  -25.0607 N   0  0  0  0  0  0  0  0  0  0  0  0
  -22.0955   -3.7648  -26.1981 N   0  0  3  0  0  0  0  0  0  0  0  0
  -21.0397   -4.5934  -34.0095 N   0  3  0  0  0  0  0  0  0  0  0  0
  -19.3265   -2.6356  -26.3756 O   0  0  0  0  0  0  0  0  0  0  0  0
  -19.8340   -6.8371  -24.3640 O   0  0  0  0  0  0  0  0  0  0  0  0
  -15.8239   -5.3057  -25.8690 O   0  0  0  0  0  0  0  0  0  0  0  0
  -23.2402   -2.8014  -30.8764 O   0  0  0  0  0  0  0  0  0  0  0  0
  -22.3193   -3.3778  -23.3436 O   0  0  0  0  0  0  0  0  0  0  0  0
  -23.5212   -2.1525  -28.1330 F   0  0  0  0  0  0  0  0  0  0  0  0
  -20.2803   -5.8941  -29.8752 H   0  0  0  0  0  0  0  0  0  0  0  0
  -20.7749   -6.6353  -26.9492 H   0  0  0  0  0  0  0  0  0  0  0  0
  -19.3093   -6.0241  -27.7067 H   0  0  0  0  0  0  0  0  0  0  0  0
  -23.9776   -2.8684  -26.2799 H   0  0  0  0  0  0  0  0  0  0  0  0
  -22.7702   -1.7526  -25.6902 H   0  0  0  0  0  0  0  0  0  0  0  0
  -21.7590   -5.3395  -24.9003 H   0  0  0  0  0  0  0  0  0  0  0  0
  -19.3002   -7.2177  -33.6702 H   0  0  0  0  0  0  0  0  0  0  0  0
  -20.8443   -5.7884  -35.7302 H   0  0  0  0  0  0  0  0  0  0  0  0
  -23.9949   -2.2334  -23.7606 H   0  0  0  0  0  0  0  0  0  0  0  0
  -20.7354   -2.5004  -24.3107 H   0  0  0  0  0  0  0  0  0  0  0  0
  -22.2271   -7.5493  -34.5243 H   0  0  0  0  0  0  0  0  0  0  0  0
  -21.2907   -8.7308  -33.5892 H   0  0  0  0  0  0  0  0  0  0  0  0
  -20.8415   -8.3712  -35.2676 H   0  0  0  0  0  0  0  0  0  0  0  0
  -18.3877   -4.8899  -34.1289 H   0  0  0  0  0  0  0  0  0  0  0  0
  -18.9704   -4.1345  -35.6245 H   0  0  0  0  0  0  0  0  0  0  0  0
  -18.3438   -5.7941  -35.6548 H   0  0  0  0  0  0  0  0  0  0  0  0
  -23.9396   -5.2122  -24.4764 H   0  0  0  0  0  0  0  0  0  0  0  0
  -25.3114   -4.0998  -24.6434 H   0  0  0  0  0  0  0  0  0  0  0  0
  -24.6637   -4.4742  -23.0346 H   0  0  0  0  0  0  0  0  0  0  0  0
  -20.3546   -4.9657  -22.5695 H   0  0  0  0  0  0  0  0  0  0  0  0
  -20.1264   -3.2793  -22.0682 H   0  0  0  0  0  0  0  0  0  0  0  0
  -19.0687   -3.9884  -23.3037 H   0  0  0  0  0  0  0  0  0  0  0  0
  -20.9724   -6.7627  -31.7123 H   0  0  0  0  0  0  0  0  0  0  0  0
  -17.3388   -6.6351  -24.4824 H   0  0  0  0  0  0  0  0  0  0  0  0
  -21.3156   -3.6587  -34.2901 H   0  0  0  0  0  0  0  0  0  0  0  0
  1  2  2  0  0  0  0
  1  3  1  0  0  0  0
  2  5  1  0  0  0  0
  2  7  1  0  0  0  0
  3  4  2  0  0  0  0
  3 12  1  0  0  0  0
  4  6  1  0  0  0  0
  4 28  1  0  0  0  0
  5  6  2  0  0  0  0
  5 33  1  0  0  0  0
  6 35  1  0  0  0  0
  7  8  1  0  0  0  0
  7 24  2  0  0  0  0
  8 26  1  0  0  0  0
  8 29  2  0  0  0  0
  9 19  1  0  0  0  0
  9 25  1  0  0  0  0
  9 30  2  0  0  0  0
 10 19  1  0  0  0  0
 10 27  1  0  0  0  0
 10 31  2  0  0  0  0
 11 25  1  0  0  0  0
 11 27  1  0  0  0  0
 11 32  2  0  0  0  0
 12 19  1  0  0  0  0
 13 17  1  0  0  0  0
 13 28  1  0  0  0  0
 14 18  1  0  0  0  0
 14 19  1  0  0  0  0
 14 28  1  0  0  0  0
 15 16  1  0  0  0  0
 15 20  1  0  0  0  0
 15 26  1  0  0  0  0
 16 21  1  0  0  0  0
 16 29  1  0  0  0  0
 17 22  1  0  0  0  0
 17 34  1  0  0  0  0
 18 23  1  0  0  0  0
 18 34  1  0  0  0  0
 24 33  1  0  0  0  0
  1 36  1  0  0  0  0
 12 37  1  0  0  0  0
 12 38  1  0  0  0  0
 13 39  1  0  0  0  0
 13 40  1  0  0  0  0
 14 41  1  0  0  0  0
 15 42  1  0  0  0  0
 16 43  1  0  0  0  0
 17 44  1  0  0  0  0
 18 45  1  0  0  0  0
 20 46  1  0  0  0  0
 20 47  1  0  0  0  0
 20 48  1  0  0  0  0
 21 49  1  0  0  0  0
 21 50  1  0  0  0  0
 21 51  1  0  0  0  0
 22 52  1  0  0  0  0
 22 53  1  0  0  0  0
 22 54  1  0  0  0  0
 23 55  1  0  0  0  0
 23 56  1  0  0  0  0
 23 57  1  0  0  0  0
 26 58  1  0  0  0  0
 27 59  1  0  0  0  0
 29 60  1  0  0  0  0
M  CHG  2  25  -1  29   1
M  END
> <SMILES>
C[C@@H]1CN2[C@H]([C@H](C)O1)C1(Cc3cc4c(noc4c(c32)F)C2=N[C@@H](C)[C@H](C)N2)C(=O)NC(=O)NC1=O

> <FORMATTED_ID>
H3D-006615

> <MOLFORMULA>
C23H25FN6O5

> <Exact Mass>
484.19

> <XLogP>
0.23

> <TPSA_NOPS>
138.5

> <s_m_source_file>
ligprep_h3d.sdf

> <i_m_source_file_index>
1053

> <i_lp_mmshare_version>
55123

> <i_f3d_flags>
0

> <s_epik_input>
Tz1DMVtOSF1DKD1PKVtOSF1DKD1PKUMxMltDQEBIXTNOKFtDSDJdW0NAQEhdKFtDSDNdKU9bQ0BIXTNbQ0gzXSljNGMoW0NIMl0yKVtjSF1jNWMoYzRGKW9uYzVDNj1OW0NAQEhdKFtDSDNdKVtDQEhdKFtDSDNdKVtOSF02

> <s_epik_cmdline>
J2VwaWtfcHl0aG9uJywgJy1waHQnLCAnMC41JywgJy1waCcsICc3LjUnLCAnLXRuJywgJzgnLCAnLW1hJywgJzUwMCcsICctaW1hZScsICc8aW5maWxlLm1hZT4nLCAnLW9tYWUnLCAnPG91dGZpbGUubWFlPic=

> <r_lp_tautomer_probability>
1

> <r_epik_Ionization_Penalty>
0.486113

> <r_epik_Ionization_Penalty_Charging>
0.486099

> <r_epik_Ionization_Penalty_Neutral>
1.46166e-05

> <r_epik_State_Penalty>
0.628044

> <r_epik_Charging_Adjusted_Penalty>
1.11414

> <i_epik_Tot_Q>
0

> <i_epik_Tot_abs_Q>
2

> <s_epik_Chemistry_Notes>
This compound has an imine and may undergo hydrolysis.

> <s_lp_Force_Field>
S-OPLS

> <r_lp_Energy>
52.6835

> <b_lp_Chiralities_Consistent>
1

> <s_lp_Variant>
ligprep_h3d.sdf:1053-2

> <ROCS_ShapeQuery>
_7L13

> <ROCS_TanimotoCombo>
0.727 

> <ROCS_ShapeTanimoto>
0.612 

> <ROCS_ColorTanimoto>
0.114 

> <ROCS_RefTversky>
0.761 

> <ROCS_RefColorTversky>
0.293 

> <ROCS_RefTverskyCombo>
1.054 

> <ROCS_FitTversky>
0.758 

> <ROCS_FitColorTversky>
0.157 

> <ROCS_FitTverskyCombo>
0.916 

> <ROCS_ColorScore>
-2.770

> <ROCS_Overlap>
1263.791

> <ROCS_Rank>
732                 

$$$$
ligprep_h3d.sdf:1120_1662
  -OEChem-08212117123D

 74 78  0     0  0  0  0  0  0999 V2000
  -21.3615   -3.6499  -31.3246 C   0  0  0  0  0  0  0  0  0  0  0  0
  -21.4435   -6.0633  -31.2460 C   0  0  0  0  0  0  0  0  0  0  0  0
  -20.9434   -3.7074  -32.6541 C   0  0  0  0  0  0  0  0  0  0  0  0
  -21.0254   -6.1208  -32.5755 C   0  0  0  0  0  0  0  0  0  0  0  0
  -17.2014   -5.4473  -26.1432 C   0  0  0  0  0  0  0  0  0  0  0  0
  -23.8318   -4.6545  -27.6235 C   0  0  0  0  0  0  0  0  0  0  0  0
  -21.1004   -4.6449  -24.4915 C   0  0  0  0  0  0  0  0  0  0  0  0
  -17.3016   -4.0434  -26.1730 C   0  0  0  0  0  0  0  0  0  0  0  0
  -21.5518   -4.7072  -26.8658 C   0  0  0  0  0  0  0  0  0  0  0  0
  -21.6115   -4.8279  -30.6206 C   0  0  0  0  0  0  0  0  0  0  0  0
  -22.0450   -4.7682  -29.2416 C   0  0  0  0  0  0  0  0  0  0  0  0
  -20.7753   -4.9428  -33.2795 C   0  0  0  0  0  0  0  0  0  0  0  0
  -23.4027   -4.7126  -28.9517 C   0  0  0  0  0  0  0  0  0  0  0  0
  -21.1198   -4.7655  -28.2017 C   0  0  0  0  0  0  0  0  0  0  0  0
  -22.9286   -4.6507  -26.5641 C   0  0  0  0  0  0  0  0  0  0  0  0
  -20.6421   -4.7031  -25.7997 C   0  0  0  0  0  0  0  0  0  0  0  0
  -22.4655   -4.5922  -24.2953 C   0  0  0  0  0  0  0  0  0  0  0  0
  -18.4960   -5.8808  -25.9933 C   0  0  0  0  0  0  0  0  0  0  0  0
  -23.0117   -4.5314  -22.9505 C   0  0  0  0  0  0  0  0  0  0  0  0
  -19.5832   -6.5649  -36.5029 C   0  0  0  0  0  0  0  0  0  0  0  0
  -18.1158   -6.1326  -34.4923 C   0  0  0  0  0  0  0  0  0  0  0  0
  -19.0178   -7.9495  -36.7595 C   0  0  0  0  0  0  0  0  0  0  0  0
  -17.4196   -7.4786  -34.5692 C   0  0  0  0  0  0  0  0  0  0  0  0
  -24.4389   -4.7114  -30.0305 C   0  0  0  0  0  0  0  0  0  0  0  0
  -19.6695   -4.8275  -28.5919 C   0  0  0  0  0  0  0  0  0  0  0  0
  -19.0454   -7.2474  -25.8958 C   0  0  0  0  0  0  0  0  0  0  0  0
  -20.3253   -5.0047  -34.7094 C   0  0  0  0  0  0  0  0  0  0  0  0
  -24.8882   -3.6951  -21.5116 C   0  0  0  0  0  0  0  0  0  0  0  0
  -25.8234   -4.8650  -21.2656 C   0  0  0  0  0  0  0  0  0  0  0  0
  -18.5604   -3.6136  -26.0520 N   0  0  0  0  0  0  0  0  0  0  0  0
  -23.3763   -4.5940  -25.2955 N   0  0  0  0  0  0  0  0  0  0  0  0
  -17.0057   -9.5944  -36.1529 N   0  0  0  0  0  0  0  0  0  0  0  0
  -19.2631   -4.7541  -25.9447 N   0  0  0  0  0  0  0  0  0  0  0  0
  -24.2302   -3.8605  -22.7877 N   0  0  0  0  0  0  0  0  0  0  0  0
  -19.5286   -6.2440  -35.0245 N   0  3  0  0  0  0  0  0  0  0  0  0
  -22.3986   -5.0409  -21.9947 O   0  0  0  0  0  0  0  0  0  0  0  0
  -16.5591   -7.1171  -37.0100 O   0  0  0  0  0  0  0  0  0  0  0  0
  -26.8206   -4.8935  -22.2788 O   0  0  0  0  0  0  0  0  0  0  0  0
  -17.3210   -8.0841  -36.2398 S   0  0  0  0  0  0  0  0  0  0  0  0
  -21.4873   -2.6793  -30.8508 H   0  0  0  0  0  0  0  0  0  0  0  0
  -21.6350   -6.9903  -30.7108 H   0  0  0  0  0  0  0  0  0  0  0  0
  -20.7498   -2.7847  -33.1946 H   0  0  0  0  0  0  0  0  0  0  0  0
  -20.8975   -7.0877  -33.0552 H   0  0  0  0  0  0  0  0  0  0  0  0
  -16.3134   -6.0576  -26.2202 H   0  0  0  0  0  0  0  0  0  0  0  0
  -24.8995   -4.6114  -27.4109 H   0  0  0  0  0  0  0  0  0  0  0  0
  -20.4168   -4.6404  -23.6469 H   0  0  0  0  0  0  0  0  0  0  0  0
  -16.5097   -3.3158  -26.2781 H   0  0  0  0  0  0  0  0  0  0  0  0
  -19.0284   -5.7816  -37.0308 H   0  0  0  0  0  0  0  0  0  0  0  0
  -20.6350   -6.5304  -36.8053 H   0  0  0  0  0  0  0  0  0  0  0  0
  -18.1850   -5.8086  -33.4486 H   0  0  0  0  0  0  0  0  0  0  0  0
  -17.6034   -5.3612  -35.0774 H   0  0  0  0  0  0  0  0  0  0  0  0
  -19.5977   -8.7127  -36.2296 H   0  0  0  0  0  0  0  0  0  0  0  0
  -19.0449   -8.1765  -37.8300 H   0  0  0  0  0  0  0  0  0  0  0  0
  -16.3938   -7.3960  -34.1962 H   0  0  0  0  0  0  0  0  0  0  0  0
  -17.9475   -8.2258  -33.9671 H   0  0  0  0  0  0  0  0  0  0  0  0
  -24.6645   -3.6841  -30.3361 H   0  0  0  0  0  0  0  0  0  0  0  0
  -24.0951   -5.2716  -30.9077 H   0  0  0  0  0  0  0  0  0  0  0  0
  -25.3649   -5.1878  -29.6878 H   0  0  0  0  0  0  0  0  0  0  0  0
  -19.3471   -5.8698  -28.6543 H   0  0  0  0  0  0  0  0  0  0  0  0
  -19.5085   -4.3449  -29.5598 H   0  0  0  0  0  0  0  0  0  0  0  0
  -19.0491   -4.3047  -27.8584 H   0  0  0  0  0  0  0  0  0  0  0  0
  -19.0847   -7.5858  -24.8475 H   0  0  0  0  0  0  0  0  0  0  0  0
  -20.0668   -7.3131  -26.3078 H   0  0  0  0  0  0  0  0  0  0  0  0
  -18.4413   -7.9774  -26.4614 H   0  0  0  0  0  0  0  0  0  0  0  0
  -21.1802   -4.9978  -35.3942 H   0  0  0  0  0  0  0  0  0  0  0  0
  -19.6892   -4.1493  -34.9613 H   0  0  0  0  0  0  0  0  0  0  0  0
  -25.4348   -2.7468  -21.5279 H   0  0  0  0  0  0  0  0  0  0  0  0
  -24.1194   -3.6522  -20.7343 H   0  0  0  0  0  0  0  0  0  0  0  0
  -26.3257   -4.7467  -20.3005 H   0  0  0  0  0  0  0  0  0  0  0  0
  -25.2858   -5.8187  -21.2737 H   0  0  0  0  0  0  0  0  0  0  0  0
  -16.0474   -9.8058  -35.8603 H   0  0  0  0  0  0  0  0  0  0  0  0
  -24.6574   -3.4082  -23.5893 H   0  0  0  0  0  0  0  0  0  0  0  0
  -19.9888   -7.0159  -34.5228 H   0  0  0  0  0  0  0  0  0  0  0  0
  -27.3943   -5.6522  -22.0850 H   0  0  0  0  0  0  0  0  0  0  0  0
  1  3  1  0  0  0  0
  1 10  2  0  0  0  0
  2  4  2  0  0  0  0
  2 10  1  0  0  0  0
  3 12  2  0  0  0  0
  4 12  1  0  0  0  0
  5  8  1  0  0  0  0
  5 18  2  0  0  0  0
  6 13  2  0  0  0  0
  6 15  1  0  0  0  0
  7 16  1  0  0  0  0
  7 17  2  0  0  0  0
  8 30  2  0  0  0  0
  9 14  1  0  0  0  0
  9 15  1  0  0  0  0
  9 16  2  0  0  0  0
 10 11  1  0  0  0  0
 11 13  1  0  0  0  0
 11 14  2  0  0  0  0
 12 27  1  0  0  0  0
 13 24  1  0  0  0  0
 14 25  1  0  0  0  0
 15 31  2  0  0  0  0
 16 33  1  0  0  0  0
 17 19  1  0  0  0  0
 17 31  1  0  0  0  0
 18 26  1  0  0  0  0
 18 33  1  0  0  0  0
 19 34  1  0  0  0  0
 19 36  2  0  0  0  0
 20 22  1  0  0  0  0
 20 35  1  0  0  0  0
 21 23  1  0  0  0  0
 21 35  1  0  0  0  0
 22 39  1  0  0  0  0
 23 39  1  0  0  0  0
 27 35  1  0  0  0  0
 28 29  1  0  0  0  0
 28 34  1  0  0  0  0
 29 38  1  0  0  0  0
 30 33  1  0  0  0  0
 32 39  2  0  0  0  0
 37 39  2  0  0  0  0
  1 40  1  0  0  0  0
  2 41  1  0  0  0  0
  3 42  1  0  0  0  0
  4 43  1  0  0  0  0
  5 44  1  0  0  0  0
  6 45  1  0  0  0  0
  7 46  1  0  0  0  0
  8 47  1  0  0  0  0
 20 48  1  0  0  0  0
 20 49  1  0  0  0  0
 21 50  1  0  0  0  0
 21 51  1  0  0  0  0
 22 52  1  0  0  0  0
 22 53  1  0  0  0  0
 23 54  1  0  0  0  0
 23 55  1  0  0  0  0
 24 56  1  0  0  0  0
 24 57  1  0  0  0  0
 24 58  1  0  0  0  0
 25 59  1  0  0  0  0
 25 60  1  0  0  0  0
 25 61  1  0  0  0  0
 26 62  1  0  0  0  0
 26 63  1  0  0  0  0
 26 64  1  0  0  0  0
 27 65  1  0  0  0  0
 27 66  1  0  0  0  0
 28 67  1  0  0  0  0
 28 68  1  0  0  0  0
 29 69  1  0  0  0  0
 29 70  1  0  0  0  0
 32 71  1  0  0  0  0
 34 72  1  0  0  0  0
 35 73  1  0  0  0  0
 38 74  1  0  0  0  0
M  CHG  1  35   1
M  END
> <SMILES>
Cc1cc2nc(cc(c2c(c1-c1ccc(cc1)CN1CCS(=N)(=O)CC1)C)-n1nccc1C)C(=O)NCCO

> <FORMATTED_ID>
H3D-007204

> <MOLFORMULA>
C29H34N6O3S

> <Exact Mass>
546.24

> <XLogP>
2.89

> <TPSA_NOPS>
132.6

> <s_m_source_file>
ligprep_h3d.sdf

> <i_m_source_file_index>
1120

> <i_lp_mmshare_version>
55123

> <i_f3d_flags>
0

> <s_epik_input>
W09IXVtDSDJdW0NIMl1bTkhdQyg9TyljKG4xKVtjSF1jKC1uMm5bY0hdW2NIXWMyW0NIM10pYyhjMTMpYyhbQ0gzXSljKGMoW0NIM10pW2NIXTMpLWM0W2NIXVtjSF1jKFtjSF1bY0hdNClbQ0gyXU4oW0NIMl1bQ0gyXTUpW0NIMl1bQ0gyXVM1KD1PKT1bTkhd

> <s_epik_cmdline>
J2VwaWtfcHl0aG9uJywgJy1waHQnLCAnMC41JywgJy1waCcsICc3LjUnLCAnLXRuJywgJzgnLCAnLW1hJywgJzUwMCcsICctaW1hZScsICc8aW5maWxlLm1hZT4nLCAnLW9tYWUnLCAnPG91dGZpbGUubWFlPic=

> <r_lp_tautomer_probability>
1

> <r_epik_Ionization_Penalty>
0.0656706

> <r_epik_Ionization_Penalty_Charging>
0.0656549

> <r_epik_Ionization_Penalty_Neutral>
1.57505e-05

> <r_epik_State_Penalty>
0.0572707

> <r_epik_Charging_Adjusted_Penalty>
0.122926

> <i_epik_Tot_Q>
1

> <i_epik_Tot_abs_Q>
1

> <s_lp_Force_Field>
S-OPLS

> <r_lp_Energy>
39.3843

> <b_lp_Chiralities_Consistent>
1

> <s_lp_Variant>
ligprep_h3d.sdf:1120-1

> <ROCS_ShapeQuery>
_7L13

> <ROCS_TanimotoCombo>
0.688 

> <ROCS_ShapeTanimoto>
0.586 

> <ROCS_ColorTanimoto>
0.102 

> <ROCS_RefTversky>
0.761 

> <ROCS_RefColorTversky>
0.230 

> <ROCS_RefTverskyCombo>
0.991 

> <ROCS_FitTversky>
0.718 

> <ROCS_FitColorTversky>
0.155 

> <ROCS_FitTverskyCombo>
0.873 

> <ROCS_ColorScore>
-2.130

> <ROCS_Overlap>
1267.697

> <ROCS_Rank>
733                 

$$$$
ligprep_h3d.sdf:5130_1122
  -OEChem-08212117123D

 63 68  0     0  0  0  0  0  0999 V2000
  -19.2586   -5.6320  -34.7397 C   0  0  0  0  0  0  0  0  0  0  0  0
  -20.1927   -6.6066  -34.3888 C   0  0  0  0  0  0  0  0  0  0  0  0
  -19.2504   -4.4036  -34.0789 C   0  0  0  0  0  0  0  0  0  0  0  0
  -21.1188   -6.3527  -33.3770 C   0  0  0  0  0  0  0  0  0  0  0  0
  -20.1764   -4.1497  -33.0672 C   0  0  0  0  0  0  0  0  0  0  0  0
  -23.6882   -4.0434  -27.7199 C   0  0  0  0  0  0  0  0  0  0  0  0
  -20.9754   -4.3602  -28.4065 C   0  0  0  0  0  0  0  0  0  0  0  0
  -15.1131   -5.3394  -25.8075 C   0  0  0  0  0  0  0  0  0  0  0  0
  -15.0207   -6.6202  -25.3292 C   0  0  0  0  0  0  0  0  0  0  0  0
  -22.7348   -4.3344  -26.7515 C   0  0  0  0  0  0  0  0  0  0  0  0
  -21.1107   -5.1243  -32.7162 C   0  0  0  0  0  0  0  0  0  0  0  0
  -21.3843   -4.4953  -27.0846 C   0  0  0  0  0  0  0  0  0  0  0  0
  -23.2777   -3.9173  -29.0462 C   0  0  0  0  0  0  0  0  0  0  0  0
  -21.9291   -4.0735  -29.3873 C   0  0  0  0  0  0  0  0  0  0  0  0
  -17.1664   -6.1173  -25.4955 C   0  0  0  0  0  0  0  0  0  0  0  0
  -18.6539   -6.0922  -25.4891 C   0  0  0  0  0  0  0  0  0  0  0  0
  -18.3934   -3.8315  -26.3368 C   0  0  0  0  0  0  0  0  0  0  0  0
  -17.0478   -3.8811  -26.3329 C   0  0  0  0  0  0  0  0  0  0  0  0
  -19.2474   -4.9533  -25.9081 C   0  0  0  0  0  0  0  0  0  0  0  0
  -23.2284   -3.0943  -24.6281 C   0  0  0  0  0  0  0  0  0  0  0  0
  -24.0325   -5.4819  -24.8997 C   0  0  0  0  0  0  0  0  0  0  0  0
  -21.5141   -4.9975  -24.8355 C   0  0  0  0  0  0  0  0  0  0  0  0
  -23.5288   -3.1768  -23.1362 C   0  0  0  0  0  0  0  0  0  0  0  0
  -24.2880   -5.5492  -23.4005 C   0  0  0  0  0  0  0  0  0  0  0  0
  -22.9246   -4.4718  -25.2596 C   0  0  0  0  0  0  0  0  0  0  0  0
  -24.4579   -2.2746  -30.2970 C   0  0  0  0  0  0  0  0  0  0  0  0
  -22.1067   -4.8504  -31.6280 C   0  0  0  0  0  0  0  0  0  0  0  0
  -16.4576   -5.0479  -25.9030 N   0  0  0  0  0  0  0  0  0  0  0  0
  -16.3053   -7.0764  -25.1457 N   0  3  0  0  0  0  0  0  0  0  0  0
  -20.5913   -4.7829  -25.9568 N   0  0  0  0  0  0  0  0  0  0  0  0
  -24.6072   -4.1799  -22.8999 N   0  3  0  0  0  0  0  0  0  0  0  0
  -24.2046   -3.6478  -30.0086 O   0  0  0  0  0  0  0  0  0  0  0  0
  -21.5303   -3.9494  -30.6856 O   0  0  0  0  0  0  0  0  0  0  0  0
  -18.5367   -5.8304  -35.5266 H   0  0  0  0  0  0  0  0  0  0  0  0
  -20.1986   -7.5635  -34.9024 H   0  0  0  0  0  0  0  0  0  0  0  0
  -18.5225   -3.6451  -34.3512 H   0  0  0  0  0  0  0  0  0  0  0  0
  -21.8432   -7.1178  -33.1104 H   0  0  0  0  0  0  0  0  0  0  0  0
  -20.1627   -3.1897  -32.5579 H   0  0  0  0  0  0  0  0  0  0  0  0
  -24.7341   -3.9267  -27.4543 H   0  0  0  0  0  0  0  0  0  0  0  0
  -19.9324   -4.4672  -28.6884 H   0  0  0  0  0  0  0  0  0  0  0  0
  -14.4011   -4.5892  -26.0954 H   0  0  0  0  0  0  0  0  0  0  0  0
  -14.2190   -7.2892  -25.0869 H   0  0  0  0  0  0  0  0  0  0  0  0
  -19.2038   -6.9641  -25.1572 H   0  0  0  0  0  0  0  0  0  0  0  0
  -18.8876   -2.9234  -26.6708 H   0  0  0  0  0  0  0  0  0  0  0  0
  -16.4118   -3.0631  -26.6455 H   0  0  0  0  0  0  0  0  0  0  0  0
  -24.0922   -2.6323  -25.1301 H   0  0  0  0  0  0  0  0  0  0  0  0
  -22.3897   -2.4016  -24.7925 H   0  0  0  0  0  0  0  0  0  0  0  0
  -23.7792   -6.4823  -25.2664 H   0  0  0  0  0  0  0  0  0  0  0  0
  -24.9681   -5.2014  -25.3980 H   0  0  0  0  0  0  0  0  0  0  0  0
  -21.1346   -4.4419  -23.9676 H   0  0  0  0  0  0  0  0  0  0  0  0
  -21.5346   -6.0566  -24.5546 H   0  0  0  0  0  0  0  0  0  0  0  0
  -22.6568   -3.4860  -22.5478 H   0  0  0  0  0  0  0  0  0  0  0  0
  -23.8953   -2.2187  -22.7507 H   0  0  0  0  0  0  0  0  0  0  0  0
  -25.1504   -6.1795  -23.1723 H   0  0  0  0  0  0  0  0  0  0  0  0
  -23.4232   -5.9078  -22.8381 H   0  0  0  0  0  0  0  0  0  0  0  0
  -25.2156   -2.1999  -31.0808 H   0  0  0  0  0  0  0  0  0  0  0  0
  -23.5325   -1.7931  -30.6229 H   0  0  0  0  0  0  0  0  0  0  0  0
  -24.8231   -1.7829  -29.3923 H   0  0  0  0  0  0  0  0  0  0  0  0
  -23.0201   -4.4043  -32.0360 H   0  0  0  0  0  0  0  0  0  0  0  0
  -22.3851   -5.7773  -31.1150 H   0  0  0  0  0  0  0  0  0  0  0  0
  -16.5590   -7.9973  -24.7985 H   0  0  0  0  0  0  0  0  0  0  0  0
  -24.8048   -4.2297  -21.8912 H   0  0  0  0  0  0  0  0  0  0  0  0
  -25.4809   -3.8526  -23.3359 H   0  0  0  0  0  0  0  0  0  0  0  0
  1  2  2  0  0  0  0
  1  3  1  0  0  0  0
  2  4  1  0  0  0  0
  3  5  2  0  0  0  0
  4 11  2  0  0  0  0
  5 11  1  0  0  0  0
  6 10  1  0  0  0  0
  6 13  2  0  0  0  0
  7 12  1  0  0  0  0
  7 14  2  0  0  0  0
  8  9  2  0  0  0  0
  8 28  1  0  0  0  0
  9 29  1  0  0  0  0
 10 12  2  0  0  0  0
 10 25  1  0  0  0  0
 11 27  1  0  0  0  0
 12 30  1  0  0  0  0
 13 14  1  0  0  0  0
 13 32  1  0  0  0  0
 14 33  1  0  0  0  0
 15 16  1  0  0  0  0
 15 28  1  0  0  0  0
 15 29  2  0  0  0  0
 16 19  2  0  0  0  0
 17 18  2  0  0  0  0
 17 19  1  0  0  0  0
 18 28  1  0  0  0  0
 19 30  1  0  0  0  0
 20 23  1  0  0  0  0
 20 25  1  0  0  0  0
 21 24  1  0  0  0  0
 21 25  1  0  0  0  0
 22 25  1  0  0  0  0
 22 30  1  0  0  0  0
 23 31  1  0  0  0  0
 24 31  1  0  0  0  0
 26 32  1  0  0  0  0
 27 33  1  0  0  0  0
  1 34  1  0  0  0  0
  2 35  1  0  0  0  0
  3 36  1  0  0  0  0
  4 37  1  0  0  0  0
  5 38  1  0  0  0  0
  6 39  1  0  0  0  0
  7 40  1  0  0  0  0
  8 41  1  0  0  0  0
  9 42  1  0  0  0  0
 16 43  1  0  0  0  0
 17 44  1  0  0  0  0
 18 45  1  0  0  0  0
 20 46  1  0  0  0  0
 20 47  1  0  0  0  0
 21 48  1  0  0  0  0
 21 49  1  0  0  0  0
 22 50  1  0  0  0  0
 22 51  1  0  0  0  0
 23 52  1  0  0  0  0
 23 53  1  0  0  0  0
 24 54  1  0  0  0  0
 24 55  1  0  0  0  0
 26 56  1  0  0  0  0
 26 57  1  0  0  0  0
 26 58  1  0  0  0  0
 27 59  1  0  0  0  0
 27 60  1  0  0  0  0
 29 61  1  0  0  0  0
 31 62  1  0  0  0  0
 31 63  1  0  0  0  0
M  CHG  2  29   1  31   1
M  END
> <SMILES>
COc1cc2c(cc1OCc1ccccc1)N(CC12CCNCC1)c1ccn2ccnc2c1

> <FORMATTED_ID>
H3D-013382

> <MOLFORMULA>
C27H28N4O2

> <Exact Mass>
440.22

> <XLogP>
5.76

> <TPSA_NOPS>
51

> <s_m_source_file>
ligprep_h3d.sdf

> <i_m_source_file_index>
5130

> <i_lp_mmshare_version>
55123

> <i_f3d_flags>
0

> <s_epik_input>
W2NIXTFbY0hdW2NIXVtjSF1bY0hdYzFbQ0gyXU9jKGMoW2NIXTIpT1tDSDNdKVtjSF1jKGMyQzM0W0NIMl1bQ0gyXVtOSF1bQ0gyXVtDSDJdNClOKFtDSDJdMyljKFtjSF1bY0hdNSlbY0hdYyhuNTYpbltjSF1bY0hdNg==

> <s_epik_cmdline>
J2VwaWtfcHl0aG9uJywgJy1waHQnLCAnMC41JywgJy1waCcsICc3LjUnLCAnLXRuJywgJzgnLCAnLW1hJywgJzUwMCcsICctaW1hZScsICc8aW5maWxlLm1hZT4nLCAnLW9tYWUnLCAnPG91dGZpbGUubWFlPic=

> <r_lp_tautomer_probability>
1

> <r_epik_Ionization_Penalty>
0.400734

> <r_epik_Ionization_Penalty_Charging>
0.00220253

> <r_epik_Ionization_Penalty_Neutral>
0.398532

> <r_epik_State_Penalty>
0.397726

> <r_epik_Charging_Adjusted_Penalty>
0.399929

> <i_epik_Tot_Q>
2

> <i_epik_Tot_abs_Q>
2

> <s_lp_Force_Field>
S-OPLS

> <r_lp_Energy>
78.4284

> <b_lp_Chiralities_Consistent>
1

> <s_lp_Variant>
ligprep_h3d.sdf:5130-1

> <ROCS_ShapeQuery>
_7L13

> <ROCS_TanimotoCombo>
0.744 

> <ROCS_ShapeTanimoto>
0.647 

> <ROCS_ColorTanimoto>
0.097 

> <ROCS_RefTversky>
0.761 

> <ROCS_RefColorTversky>
0.203 

> <ROCS_RefTverskyCombo>
0.964 

> <ROCS_FitTversky>
0.812 

> <ROCS_FitColorTversky>
0.156 

> <ROCS_FitTverskyCombo>
0.968 

> <ROCS_ColorScore>
-1.855

> <ROCS_Overlap>
1259.103

> <ROCS_Rank>
734                 

$$$$
ligprep_h3d.sdf:1199_1592
  -OEChem-08212117123D

 75 79  0     0  0  0  0  0  0999 V2000
  -19.8995   -4.0320  -32.2126 C   0  0  0  0  0  0  0  0  0  0  0  0
  -20.5526   -6.3513  -32.0359 C   0  0  0  0  0  0  0  0  0  0  0  0
  -19.3423   -4.2844  -33.4661 C   0  0  0  0  0  0  0  0  0  0  0  0
  -19.9954   -6.6037  -33.2895 C   0  0  0  0  0  0  0  0  0  0  0  0
  -16.9620   -6.3169  -26.4217 C   0  0  0  0  0  0  0  0  0  0  0  0
  -22.9825   -4.1660  -28.8528 C   0  0  0  0  0  0  0  0  0  0  0  0
  -20.7415   -4.5314  -25.3722 C   0  0  0  0  0  0  0  0  0  0  0  0
  -16.7266   -4.9331  -26.5295 C   0  0  0  0  0  0  0  0  0  0  0  0
  -20.8921   -4.6729  -27.7810 C   0  0  0  0  0  0  0  0  0  0  0  0
  -20.5047   -5.0655  -31.4975 C   0  0  0  0  0  0  0  0  0  0  0  0
  -21.0825   -4.8037  -30.1972 C   0  0  0  0  0  0  0  0  0  0  0  0
  -19.3903   -5.5702  -34.0046 C   0  0  0  0  0  0  0  0  0  0  0  0
  -22.4149   -4.4213  -30.1036 C   0  0  0  0  0  0  0  0  0  0  0  0
  -20.3209   -4.9297  -29.0389 C   0  0  0  0  0  0  0  0  0  0  0  0
  -22.2443   -4.2844  -27.6784 C   0  0  0  0  0  0  0  0  0  0  0  0
  -20.1485   -4.7920  -26.5991 C   0  0  0  0  0  0  0  0  0  0  0  0
  -22.0700   -4.1575  -25.3722 C   0  0  0  0  0  0  0  0  0  0  0  0
  -18.3304   -6.4345  -26.4354 C   0  0  0  0  0  0  0  0  0  0  0  0
  -22.7519   -3.8717  -24.1216 C   0  0  0  0  0  0  0  0  0  0  0  0
  -25.5682   -5.1883  -22.4615 C   0  0  0  0  0  0  0  0  0  0  0  0
  -19.1260   -7.0425  -37.4194 C   0  0  0  0  0  0  0  0  0  0  0  0
  -20.6253   -5.2602  -36.8078 C   0  0  0  0  0  0  0  0  0  0  0  0
  -20.1781   -7.5528  -38.3999 C   0  0  0  0  0  0  0  0  0  0  0  0
  -21.6425   -5.8132  -37.8019 C   0  0  0  0  0  0  0  0  0  0  0  0
  -23.2776   -4.2696  -31.3161 C   0  0  0  0  0  0  0  0  0  0  0  0
  -18.8880   -5.3469  -29.2184 C   0  0  0  0  0  0  0  0  0  0  0  0
  -19.1918   -7.6304  -26.3535 C   0  0  0  0  0  0  0  0  0  0  0  0
  -28.4401   -6.6661  -22.8758 C   0  0  0  0  0  0  0  0  0  0  0  0
  -18.7903   -5.8420  -35.3538 C   0  0  0  0  0  0  0  0  0  0  0  0
  -24.9482   -3.8772  -22.9102 C   0  0  0  0  0  0  0  0  0  0  0  0
  -17.8550   -4.2226  -26.6062 N   0  0  0  0  0  0  0  0  0  0  0  0
  -22.8225   -4.0308  -26.4892 N   0  0  0  0  0  0  0  0  0  0  0  0
  -26.7666   -4.9602  -21.9160 N   0  5  0  0  0  0  0  0  0  0  0  0
  -18.8127   -5.1636  -26.5466 N   0  0  0  0  0  0  0  0  0  0  0  0
  -19.7808   -6.3504  -36.3005 N   0  0  0  0  0  0  0  0  0  0  0  0
  -24.1274   -4.1303  -24.0725 N   0  0  0  0  0  0  0  0  0  0  0  0
  -22.1279   -3.3985  -23.1543 O   0  0  0  0  0  0  0  0  0  0  0  0
  -24.9683   -6.2559  -22.5786 O   0  0  0  0  0  0  0  0  0  0  0  0
  -28.6008   -5.9964  -20.4176 O   0  0  0  0  0  0  0  0  0  0  0  0
  -26.7231   -7.4280  -21.1471 O   0  0  0  0  0  0  0  0  0  0  0  0
  -20.9767   -6.4707  -38.8806 O   0  0  0  0  0  0  0  0  0  0  0  0
  -27.5450   -6.2468  -21.3946 S   0  0  0  0  0  0  0  0  0  0  0  0
  -19.8536   -3.0245  -31.8061 H   0  0  0  0  0  0  0  0  0  0  0  0
  -21.0215   -7.1673  -31.4910 H   0  0  0  0  0  0  0  0  0  0  0  0
  -18.8718   -3.4735  -34.0158 H   0  0  0  0  0  0  0  0  0  0  0  0
  -20.0378   -7.6085  -33.7017 H   0  0  0  0  0  0  0  0  0  0  0  0
  -16.2389   -7.1157  -26.3453 H   0  0  0  0  0  0  0  0  0  0  0  0
  -24.0285   -3.8670  -28.7945 H   0  0  0  0  0  0  0  0  0  0  0  0
  -20.1879   -4.6162  -24.4411 H   0  0  0  0  0  0  0  0  0  0  0  0
  -15.7798   -4.4131  -26.5555 H   0  0  0  0  0  0  0  0  0  0  0  0
  -18.5408   -7.8925  -37.0504 H   0  0  0  0  0  0  0  0  0  0  0  0
  -18.4427   -6.3596  -37.9409 H   0  0  0  0  0  0  0  0  0  0  0  0
  -20.0078   -4.4993  -37.3027 H   0  0  0  0  0  0  0  0  0  0  0  0
  -21.1615   -4.7787  -35.9820 H   0  0  0  0  0  0  0  0  0  0  0  0
  -19.6886   -8.0150  -39.2632 H   0  0  0  0  0  0  0  0  0  0  0  0
  -20.8252   -8.3097  -37.9404 H   0  0  0  0  0  0  0  0  0  0  0  0
  -22.3400   -6.5111  -37.3226 H   0  0  0  0  0  0  0  0  0  0  0  0
  -22.2331   -4.9946  -38.2255 H   0  0  0  0  0  0  0  0  0  0  0  0
  -23.2165   -3.2444  -31.6970 H   0  0  0  0  0  0  0  0  0  0  0  0
  -22.9666   -4.9586  -32.1098 H   0  0  0  0  0  0  0  0  0  0  0  0
  -24.3249   -4.4971  -31.0854 H   0  0  0  0  0  0  0  0  0  0  0  0
  -18.8130   -6.4367  -29.1872 H   0  0  0  0  0  0  0  0  0  0  0  0
  -18.4980   -4.9890  -30.1752 H   0  0  0  0  0  0  0  0  0  0  0  0
  -18.2601   -4.9226  -28.4298 H   0  0  0  0  0  0  0  0  0  0  0  0
  -19.4410   -7.8696  -25.3067 H   0  0  0  0  0  0  0  0  0  0  0  0
  -20.1400   -7.4956  -26.9013 H   0  0  0  0  0  0  0  0  0  0  0  0
  -18.7088   -8.5191  -26.7946 H   0  0  0  0  0  0  0  0  0  0  0  0
  -29.0401   -7.5552  -22.6756 H   0  0  0  0  0  0  0  0  0  0  0  0
  -29.0810   -5.8239  -23.1409 H   0  0  0  0  0  0  0  0  0  0  0  0
  -27.7185   -6.8627  -23.6702 H   0  0  0  0  0  0  0  0  0  0  0  0
  -18.3587   -4.9278  -35.7757 H   0  0  0  0  0  0  0  0  0  0  0  0
  -17.9842   -6.5800  -35.2840 H   0  0  0  0  0  0  0  0  0  0  0  0
  -25.7009   -3.1376  -23.2008 H   0  0  0  0  0  0  0  0  0  0  0  0
  -24.3153   -3.4740  -22.1146 H   0  0  0  0  0  0  0  0  0  0  0  0
  -24.6000   -4.4567  -24.9091 H   0  0  0  0  0  0  0  0  0  0  0  0
  1  3  1  0  0  0  0
  1 10  2  0  0  0  0
  2  4  2  0  0  0  0
  2 10  1  0  0  0  0
  3 12  2  0  0  0  0
  4 12  1  0  0  0  0
  5  8  1  0  0  0  0
  5 18  2  0  0  0  0
  6 13  2  0  0  0  0
  6 15  1  0  0  0  0
  7 16  1  0  0  0  0
  7 17  2  0  0  0  0
  8 31  2  0  0  0  0
  9 14  1  0  0  0  0
  9 15  1  0  0  0  0
  9 16  2  0  0  0  0
 10 11  1  0  0  0  0
 11 13  1  0  0  0  0
 11 14  2  0  0  0  0
 12 29  1  0  0  0  0
 13 25  1  0  0  0  0
 14 26  1  0  0  0  0
 15 32  2  0  0  0  0
 16 34  1  0  0  0  0
 17 19  1  0  0  0  0
 17 32  1  0  0  0  0
 18 27  1  0  0  0  0
 18 34  1  0  0  0  0
 19 36  1  0  0  0  0
 19 37  2  0  0  0  0
 20 30  1  0  0  0  0
 20 33  1  0  0  0  0
 20 38  2  0  0  0  0
 21 23  1  0  0  0  0
 21 35  1  0  0  0  0
 22 24  1  0  0  0  0
 22 35  1  0  0  0  0
 23 41  1  0  0  0  0
 24 41  1  0  0  0  0
 28 42  1  0  0  0  0
 29 35  1  0  0  0  0
 30 36  1  0  0  0  0
 31 34  1  0  0  0  0
 33 42  1  0  0  0  0
 39 42  2  0  0  0  0
 40 42  2  0  0  0  0
  1 43  1  0  0  0  0
  2 44  1  0  0  0  0
  3 45  1  0  0  0  0
  4 46  1  0  0  0  0
  5 47  1  0  0  0  0
  6 48  1  0  0  0  0
  7 49  1  0  0  0  0
  8 50  1  0  0  0  0
 21 51  1  0  0  0  0
 21 52  1  0  0  0  0
 22 53  1  0  0  0  0
 22 54  1  0  0  0  0
 23 55  1  0  0  0  0
 23 56  1  0  0  0  0
 24 57  1  0  0  0  0
 24 58  1  0  0  0  0
 25 59  1  0  0  0  0
 25 60  1  0  0  0  0
 25 61  1  0  0  0  0
 26 62  1  0  0  0  0
 26 63  1  0  0  0  0
 26 64  1  0  0  0  0
 27 65  1  0  0  0  0
 27 66  1  0  0  0  0
 27 67  1  0  0  0  0
 28 68  1  0  0  0  0
 28 69  1  0  0  0  0
 28 70  1  0  0  0  0
 29 71  1  0  0  0  0
 29 72  1  0  0  0  0
 30 73  1  0  0  0  0
 30 74  1  0  0  0  0
 36 75  1  0  0  0  0
M  CHG  1  33  -1
M  END
> <SMILES>
Cc1cc2nc(cc(c2c(c1-c1ccc(cc1)CN1CCOCC1)C)-n1nccc1C)C(=O)NCC(=O)NS(=O)(=O)C

> <FORMATTED_ID>
H3D-008312

> <MOLFORMULA>
C30H34N6O5S

> <Exact Mass>
590.23

> <XLogP>
2.66

> <TPSA_NOPS>
143.9

> <s_m_source_file>
ligprep_h3d.sdf

> <i_m_source_file_index>
1199

> <i_lp_mmshare_version>
55123

> <i_f3d_flags>
0

> <s_epik_input>
W0NIMl0xW0NIMl1PW0NIMl1bQ0gyXU4xW0NIMl1jKFtjSF1bY0hdMilbY0hdW2NIXWMyLWMoYyhbQ0gzXSlbY0hdMyljKFtDSDNdKWMoYzM0KWMoLW41bltjSF1bY0hdYzVbQ0gzXSlbY0hdYyhuNClDKD1PKVtOSF1bQ0gyXUMoPU8pW05IXVMoPU8pKD1PKVtDSDNd

> <s_epik_cmdline>
J2VwaWtfcHl0aG9uJywgJy1waHQnLCAnMC41JywgJy1waCcsICc3LjUnLCAnLXRuJywgJzgnLCAnLW1hJywgJzUwMCcsICctaW1hZScsICc8aW5maWxlLm1hZT4nLCAnLW9tYWUnLCAnPG91dGZpbGUubWFlPic=

> <r_lp_tautomer_probability>
1

> <r_epik_Ionization_Penalty>
0.107302

> <r_epik_Ionization_Penalty_Charging>
0.00174872

> <r_epik_Ionization_Penalty_Neutral>
0.105554

> <r_epik_State_Penalty>
0.095414

> <r_epik_Charging_Adjusted_Penalty>
0.0971628

> <i_epik_Tot_Q>
-1

> <i_epik_Tot_abs_Q>
1

> <s_lp_Force_Field>
S-OPLS

> <r_lp_Energy>
59.6304

> <b_lp_Chiralities_Consistent>
1

> <s_lp_Variant>
ligprep_h3d.sdf:1199-1

> <ROCS_ShapeQuery>
_7L13

> <ROCS_TanimotoCombo>
0.638 

> <ROCS_ShapeTanimoto>
0.550 

> <ROCS_ColorTanimoto>
0.088 

> <ROCS_RefTversky>
0.761 

> <ROCS_RefColorTversky>
0.216 

> <ROCS_RefTverskyCombo>
0.977 

> <ROCS_FitTversky>
0.665 

> <ROCS_FitColorTversky>
0.129 

> <ROCS_FitTverskyCombo>
0.794 

> <ROCS_ColorScore>
-2.018

> <ROCS_Overlap>
1273.678

> <ROCS_Rank>
735                 

$$$$
ligprep_h3d.sdf:1459_1092
  -OEChem-08212117123D

 65 69  0     1  0  0  0  0  0999 V2000
  -20.3991   -3.9034  -32.7359 C   0  0  0  0  0  0  0  0  0  0  0  0
  -19.4668   -6.0241  -32.0501 C   0  0  0  0  0  0  0  0  0  0  0  0
  -19.7855   -4.0363  -33.9814 C   0  0  0  0  0  0  0  0  0  0  0  0
  -18.8531   -6.1571  -33.2957 C   0  0  0  0  0  0  0  0  0  0  0  0
  -16.5892   -5.4183  -26.6413 C   0  0  0  0  0  0  0  0  0  0  0  0
  -22.8861   -4.5200  -29.1537 C   0  0  0  0  0  0  0  0  0  0  0  0
  -20.6630   -4.4275  -25.6438 C   0  0  0  0  0  0  0  0  0  0  0  0
  -16.6340   -4.0152  -26.7466 C   0  0  0  0  0  0  0  0  0  0  0  0
  -20.7505   -4.5941  -28.0540 C   0  0  0  0  0  0  0  0  0  0  0  0
  -20.2397   -4.8972  -31.7702 C   0  0  0  0  0  0  0  0  0  0  0  0
  -20.8790   -4.7585  -30.4723 C   0  0  0  0  0  0  0  0  0  0  0  0
  -19.0125   -5.1632  -34.2613 C   0  0  0  0  0  0  0  0  0  0  0  0
  -22.2624   -4.6540  -30.3966 C   0  0  0  0  0  0  0  0  0  0  0  0
  -20.1228   -4.7288  -29.3041 C   0  0  0  0  0  0  0  0  0  0  0  0
  -22.1546   -4.4876  -27.9696 C   0  0  0  0  0  0  0  0  0  0  0  0
  -20.0136   -4.5613  -26.8625 C   0  0  0  0  0  0  0  0  0  0  0  0
  -17.9060   -5.8073  -26.6734 C   0  0  0  0  0  0  0  0  0  0  0  0
  -22.0396   -4.3303  -25.6616 C   0  0  0  0  0  0  0  0  0  0  0  0
  -19.7457   -7.3999  -35.8400 C   0  0  0  0  0  0  0  0  0  0  0  0
  -24.0686   -4.0827  -24.1966 C   0  0  0  0  0  0  0  0  0  0  0  0
  -19.1631   -7.9108  -38.0903 C   0  0  0  0  0  0  0  0  0  0  0  0
  -18.1703   -6.9098  -37.5333 C   0  0  0  0  0  0  0  0  0  0  0  0
  -19.7743   -8.5384  -36.8421 C   0  0  2  0  0  0  0  0  0  0  0  0
  -23.1224   -4.6779  -31.6201 C   0  0  0  0  0  0  0  0  0  0  0  0
  -18.6329   -4.8444  -29.4645 C   0  0  0  0  0  0  0  0  0  0  0  0
  -18.5118   -7.1515  -26.6026 C   0  0  0  0  0  0  0  0  0  0  0  0
  -24.3720   -3.9627  -22.7242 C   0  0  0  0  0  0  0  0  0  0  0  0
  -18.3562   -5.3053  -35.5929 C   0  0  0  0  0  0  0  0  0  0  0  0
  -17.8806   -3.5446  -26.8389 N   0  0  0  0  0  0  0  0  0  0  0  0
  -22.7876   -4.3575  -26.7884 N   0  0  0  0  0  0  0  0  0  0  0  0
  -18.6313   -4.6583  -26.7917 N   0  0  0  0  0  0  0  0  0  0  0  0
  -18.7879   -6.4943  -36.2948 N   0  0  0  0  0  0  0  0  0  0  0  0
  -22.6950   -4.1974  -24.4315 N   0  0  0  0  0  0  0  0  0  0  0  0
  -20.4330   -7.3327  -34.8323 O   0  0  0  0  0  0  0  0  0  0  0  0
  -24.9719   -4.0762  -25.0266 O   0  0  0  0  0  0  0  0  0  0  0  0
  -21.0783   -8.9961  -37.0922 O   0  0  0  0  0  0  0  0  0  0  0  0
  -20.9980   -3.0187  -32.5326 H   0  0  0  0  0  0  0  0  0  0  0  0
  -19.3336   -6.8077  -31.3080 H   0  0  0  0  0  0  0  0  0  0  0  0
  -19.9142   -3.2565  -34.7274 H   0  0  0  0  0  0  0  0  0  0  0  0
  -18.2531   -7.0387  -33.5054 H   0  0  0  0  0  0  0  0  0  0  0  0
  -15.7220   -6.0565  -26.5547 H   0  0  0  0  0  0  0  0  0  0  0  0
  -23.9713   -4.4375  -29.1091 H   0  0  0  0  0  0  0  0  0  0  0  0
  -20.1129   -4.4015  -24.7071 H   0  0  0  0  0  0  0  0  0  0  0  0
  -15.8102   -3.3161  -26.7601 H   0  0  0  0  0  0  0  0  0  0  0  0
  -19.9325   -7.4062  -38.6882 H   0  0  0  0  0  0  0  0  0  0  0  0
  -18.6875   -8.6582  -38.7327 H   0  0  0  0  0  0  0  0  0  0  0  0
  -17.2054   -7.3714  -37.3023 H   0  0  0  0  0  0  0  0  0  0  0  0
  -18.0291   -6.0554  -38.2005 H   0  0  0  0  0  0  0  0  0  0  0  0
  -19.1527   -9.3590  -36.4669 H   0  0  0  0  0  0  0  0  0  0  0  0
  -23.2646   -3.6610  -32.0016 H   0  0  0  0  0  0  0  0  0  0  0  0
  -22.6687   -5.2889  -32.4090 H   0  0  0  0  0  0  0  0  0  0  0  0
  -24.1051   -5.1124  -31.4026 H   0  0  0  0  0  0  0  0  0  0  0  0
  -18.3371   -5.8959  -29.4297 H   0  0  0  0  0  0  0  0  0  0  0  0
  -18.3119   -4.4143  -30.4174 H   0  0  0  0  0  0  0  0  0  0  0  0
  -18.1149   -4.3008  -28.6693 H   0  0  0  0  0  0  0  0  0  0  0  0
  -18.7220   -7.4380  -25.5592 H   0  0  0  0  0  0  0  0  0  0  0  0
  -19.4604   -7.2079  -27.1633 H   0  0  0  0  0  0  0  0  0  0  0  0
  -17.8549   -7.9246  -27.0368 H   0  0  0  0  0  0  0  0  0  0  0  0
  -24.3727   -2.9091  -22.4311 H   0  0  0  0  0  0  0  0  0  0  0  0
  -23.6096   -4.4912  -22.1449 H   0  0  0  0  0  0  0  0  0  0  0  0
  -25.3493   -4.4039  -22.5073 H   0  0  0  0  0  0  0  0  0  0  0  0
  -18.5774   -4.4431  -36.2376 H   0  0  0  0  0  0  0  0  0  0  0  0
  -17.2628   -5.3591  -35.4996 H   0  0  0  0  0  0  0  0  0  0  0  0
  -22.0959   -4.1830  -23.6007 H   0  0  0  0  0  0  0  0  0  0  0  0
  -21.0186   -9.7227  -37.7409 H   0  0  0  0  0  0  0  0  0  0  0  0
  1  3  1  0  0  0  0
  1 10  2  0  0  0  0
  2  4  2  0  0  0  0
  2 10  1  0  0  0  0
  3 12  2  0  0  0  0
  4 12  1  0  0  0  0
  5  8  1  0  0  0  0
  5 17  2  0  0  0  0
  6 13  2  0  0  0  0
  6 15  1  0  0  0  0
  7 16  1  0  0  0  0
  7 18  2  0  0  0  0
  8 29  2  0  0  0  0
  9 14  1  0  0  0  0
  9 15  1  0  0  0  0
  9 16  2  0  0  0  0
 10 11  1  0  0  0  0
 11 13  1  0  0  0  0
 11 14  2  0  0  0  0
 12 28  1  0  0  0  0
 13 24  1  0  0  0  0
 14 25  1  0  0  0  0
 15 30  2  0  0  0  0
 16 31  1  0  0  0  0
 17 26  1  0  0  0  0
 17 31  1  0  0  0  0
 18 30  1  0  0  0  0
 18 33  1  0  0  0  0
 19 23  1  0  0  0  0
 19 32  1  0  0  0  0
 19 34  2  0  0  0  0
 20 27  1  0  0  0  0
 20 33  1  0  0  0  0
 20 35  2  0  0  0  0
 21 22  1  0  0  0  0
 21 23  1  0  0  0  0
 22 32  1  0  0  0  0
 23 36  1  0  0  0  0
 28 32  1  0  0  0  0
 29 31  1  0  0  0  0
  1 37  1  0  0  0  0
  2 38  1  0  0  0  0
  3 39  1  0  0  0  0
  4 40  1  0  0  0  0
  5 41  1  0  0  0  0
  6 42  1  0  0  0  0
  7 43  1  0  0  0  0
  8 44  1  0  0  0  0
 21 45  1  0  0  0  0
 21 46  1  0  0  0  0
 22 47  1  0  0  0  0
 22 48  1  0  0  0  0
 23 49  1  0  0  0  0
 24 50  1  0  0  0  0
 24 51  1  0  0  0  0
 24 52  1  0  0  0  0
 25 53  1  0  0  0  0
 25 54  1  0  0  0  0
 25 55  1  0  0  0  0
 26 56  1  0  0  0  0
 26 57  1  0  0  0  0
 26 58  1  0  0  0  0
 27 59  1  0  0  0  0
 27 60  1  0  0  0  0
 27 61  1  0  0  0  0
 28 62  1  0  0  0  0
 28 63  1  0  0  0  0
 33 64  1  0  0  0  0
 36 65  1  0  0  0  0
M  END
> <SMILES>
CC(=O)Nc1cc(c2c(c(c(cc2n1)C)-c1ccc(cc1)CN1CC[C@H](O)C1=O)C)-n1nccc1C

> <FORMATTED_ID>
H3D-012575

> <MOLFORMULA>
C28H29N5O3

> <Exact Mass>
483.23

> <XLogP>
4.29

> <TPSA_NOPS>
100.3

> <s_m_source_file>
ligprep_h3d.sdf

> <i_m_source_file_index>
1459

> <i_lp_mmshare_version>
55123

> <i_f3d_flags>
0

> <s_epik_input>
W0NIM11jMVtjSF1bY0hdbm4xLWMyW2NIXWMoW05IXUMoPU8pW0NIM10pbmMoYzIzKVtjSF1jKFtDSDNdKWMoYzNbQ0gzXSktYzRbY0hdW2NIXWMoW2NIXVtjSF00KVtDSDJdTjVbQ0gyXVtDSDJdW0NASF0oW09IXSlDNT1P

> <s_epik_cmdline>
J2VwaWtfcHl0aG9uJywgJy1waHQnLCAnMC41JywgJy1waCcsICc3LjUnLCAnLXRuJywgJzgnLCAnLW1hJywgJzUwMCcsICctaW1hZScsICc8aW5maWxlLm1hZT4nLCAnLW9tYWUnLCAnPG91dGZpbGUubWFlPic=

> <r_lp_tautomer_probability>
1

> <r_epik_Ionization_Penalty>
0.000265688

> <r_epik_Ionization_Penalty_Charging>
0

> <r_epik_Ionization_Penalty_Neutral>
0.000265688

> <r_epik_State_Penalty>
-0

> <r_epik_Charging_Adjusted_Penalty>
0

> <i_epik_Tot_Q>
0

> <i_epik_Tot_abs_Q>
0

> <s_lp_Force_Field>
S-OPLS

> <r_lp_Energy>
47.4874

> <b_lp_Chiralities_Consistent>
1

> <s_lp_Variant>
ligprep_h3d.sdf:1459-1

> <ROCS_ShapeQuery>
_7L13

> <ROCS_TanimotoCombo>
0.659 

> <ROCS_ShapeTanimoto>
0.608 

> <ROCS_ColorTanimoto>
0.050 

> <ROCS_RefTversky>
0.761 

> <ROCS_RefColorTversky>
0.110 

> <ROCS_RefTverskyCombo>
0.871 

> <ROCS_FitTversky>
0.752 

> <ROCS_FitColorTversky>
0.085 

> <ROCS_FitTverskyCombo>
0.837 

> <ROCS_ColorScore>
-1.009

> <ROCS_Overlap>
1264.298

> <ROCS_Rank>
736                 

$$$$
ligprep_h3d.sdf:5508_1239
  -OEChem-08212117123D

 55 59  0     0  0  0  0  0  0999 V2000
  -16.1041   -5.0849  -25.9537 C   0  0  0  0  0  0  0  0  0  0  0  0
  -17.0145   -6.1269  -25.7772 C   0  0  0  0  0  0  0  0  0  0  0  0
  -16.5275   -3.7612  -25.8344 C   0  0  0  0  0  0  0  0  0  0  0  0
  -19.2732   -4.8057  -29.4348 C   0  0  0  0  0  0  0  0  0  0  0  0
  -21.2974   -4.6990  -32.5075 C   0  0  0  0  0  0  0  0  0  0  0  0
  -18.3482   -5.8452  -25.4817 C   0  0  0  0  0  0  0  0  0  0  0  0
  -17.8613   -3.4795  -25.5389 C   0  0  0  0  0  0  0  0  0  0  0  0
  -19.3465   -4.6137  -28.0511 C   0  0  0  0  0  0  0  0  0  0  0  0
  -21.1573   -4.9042  -33.8756 C   0  0  0  0  0  0  0  0  0  0  0  0
  -21.6985   -4.9077  -29.6229 C   0  0  0  0  0  0  0  0  0  0  0  0
  -19.2098   -5.7912  -32.1826 C   0  0  0  0  0  0  0  0  0  0  0  0
  -20.4270   -4.9503  -30.2086 C   0  0  0  0  0  0  0  0  0  0  0  0
  -20.3095   -5.1479  -31.6381 C   0  0  0  0  0  0  0  0  0  0  0  0
  -18.7717   -4.5215  -25.3625 C   0  0  0  0  0  0  0  0  0  0  0  0
  -21.7908   -4.7157  -28.2340 C   0  0  0  0  0  0  0  0  0  0  0  0
  -20.6231   -4.5747  -27.4895 C   0  0  0  0  0  0  0  0  0  0  0  0
  -20.0195   -5.5583  -34.3200 C   0  0  0  0  0  0  0  0  0  0  0  0
  -22.4255   -4.4515  -26.2124 C   0  0  0  0  0  0  0  0  0  0  0  0
  -22.3941   -4.1065  -23.7583 C   0  0  0  0  0  0  0  0  0  0  0  0
  -24.4300   -4.9869  -24.8988 C   0  0  0  0  0  0  0  0  0  0  0  0
  -23.2782   -3.4357  -22.7162 C   0  0  0  0  0  0  0  0  0  0  0  0
  -25.3020   -4.3081  -23.8527 C   0  0  0  0  0  0  0  0  0  0  0  0
  -20.2105   -4.2169  -25.0438 C   0  0  0  0  0  0  0  0  0  0  0  0
  -19.8378   -5.7984  -35.7815 C   0  0  0  0  0  0  0  0  0  0  0  0
  -19.0387   -6.0087  -33.5059 N   0  0  0  0  0  0  0  0  0  0  0  0
  -22.9002   -4.6364  -27.4238 N   0  0  0  0  0  0  0  0  0  0  0  0
  -21.0591   -4.4072  -26.2001 N   0  0  0  0  0  0  0  0  0  0  0  0
  -23.1314   -4.3056  -25.0124 N   0  0  0  0  0  0  0  0  0  0  0  0
  -24.5431   -4.2115  -22.5725 N   0  3  0  0  0  0  0  0  0  0  0  0
  -20.8645   -5.3218  -36.5456 F   0  0  0  0  0  0  0  0  0  0  0  0
  -18.7127   -5.2186  -36.2942 F   0  0  0  0  0  0  0  0  0  0  0  0
  -19.7387   -7.1247  -36.0866 F   0  0  0  0  0  0  0  0  0  0  0  0
  -15.0653   -5.3045  -26.1825 H   0  0  0  0  0  0  0  0  0  0  0  0
  -16.6847   -7.1577  -25.8690 H   0  0  0  0  0  0  0  0  0  0  0  0
  -15.8188   -2.9497  -25.9707 H   0  0  0  0  0  0  0  0  0  0  0  0
  -18.2902   -4.8416  -29.9013 H   0  0  0  0  0  0  0  0  0  0  0  0
  -22.1812   -4.1878  -32.1341 H   0  0  0  0  0  0  0  0  0  0  0  0
  -19.0505   -6.6635  -25.3460 H   0  0  0  0  0  0  0  0  0  0  0  0
  -18.1822   -2.4451  -25.4480 H   0  0  0  0  0  0  0  0  0  0  0  0
  -18.4500   -4.5015  -27.4518 H   0  0  0  0  0  0  0  0  0  0  0  0
  -21.9208   -4.5594  -34.5643 H   0  0  0  0  0  0  0  0  0  0  0  0
  -22.5996   -5.0196  -30.2191 H   0  0  0  0  0  0  0  0  0  0  0  0
  -18.4035   -6.1653  -31.5578 H   0  0  0  0  0  0  0  0  0  0  0  0
  -21.5127   -3.4760  -23.9295 H   0  0  0  0  0  0  0  0  0  0  0  0
  -22.0360   -5.0747  -23.3853 H   0  0  0  0  0  0  0  0  0  0  0  0
  -24.2693   -6.0399  -24.6344 H   0  0  0  0  0  0  0  0  0  0  0  0
  -24.9565   -4.9676  -25.8612 H   0  0  0  0  0  0  0  0  0  0  0  0
  -22.7978   -3.4235  -21.7336 H   0  0  0  0  0  0  0  0  0  0  0  0
  -23.5468   -2.4118  -22.9977 H   0  0  0  0  0  0  0  0  0  0  0  0
  -25.5892   -3.2925  -24.1462 H   0  0  0  0  0  0  0  0  0  0  0  0
  -26.2040   -4.8916  -23.6452 H   0  0  0  0  0  0  0  0  0  0  0  0
  -20.5818   -4.8594  -24.2362 H   0  0  0  0  0  0  0  0  0  0  0  0
  -20.3293   -3.1828  -24.6981 H   0  0  0  0  0  0  0  0  0  0  0  0
  -24.3353   -5.1557  -22.2181 H   0  0  0  0  0  0  0  0  0  0  0  0
  -25.1360   -3.7682  -21.8574 H   0  0  0  0  0  0  0  0  0  0  0  0
  1  2  2  0  0  0  0
  1  3  1  0  0  0  0
  2  6  1  0  0  0  0
  3  7  2  0  0  0  0
  4  8  2  0  0  0  0
  4 12  1  0  0  0  0
  5  9  1  0  0  0  0
  5 13  2  0  0  0  0
  6 14  2  0  0  0  0
  7 14  1  0  0  0  0
  8 16  1  0  0  0  0
  9 17  2  0  0  0  0
 10 12  2  0  0  0  0
 10 15  1  0  0  0  0
 11 13  1  0  0  0  0
 11 25  2  0  0  0  0
 12 13  1  0  0  0  0
 14 23  1  0  0  0  0
 15 16  2  0  0  0  0
 15 26  1  0  0  0  0
 16 27  1  0  0  0  0
 17 24  1  0  0  0  0
 17 25  1  0  0  0  0
 18 26  2  0  0  0  0
 18 27  1  0  0  0  0
 18 28  1  0  0  0  0
 19 21  1  0  0  0  0
 19 28  1  0  0  0  0
 20 22  1  0  0  0  0
 20 28  1  0  0  0  0
 21 29  1  0  0  0  0
 22 29  1  0  0  0  0
 23 27  1  0  0  0  0
 24 30  1  0  0  0  0
 24 31  1  0  0  0  0
 24 32  1  0  0  0  0
  1 33  1  0  0  0  0
  2 34  1  0  0  0  0
  3 35  1  0  0  0  0
  4 36  1  0  0  0  0
  5 37  1  0  0  0  0
  6 38  1  0  0  0  0
  7 39  1  0  0  0  0
  8 40  1  0  0  0  0
  9 41  1  0  0  0  0
 10 42  1  0  0  0  0
 11 43  1  0  0  0  0
 19 44  1  0  0  0  0
 19 45  1  0  0  0  0
 20 46  1  0  0  0  0
 20 47  1  0  0  0  0
 21 48  1  0  0  0  0
 21 49  1  0  0  0  0
 22 50  1  0  0  0  0
 22 51  1  0  0  0  0
 23 52  1  0  0  0  0
 23 53  1  0  0  0  0
 29 54  1  0  0  0  0
 29 55  1  0  0  0  0
M  CHG  1  29   1
M  END
> <SMILES>
FC(F)(F)c1ccc(cn1)-c1ccc2n(c(nc2c1)N1CCNCC1)Cc1ccccc1

> <FORMATTED_ID>
H3D-003796

> <MOLFORMULA>
C24H22F3N5

> <Exact Mass>
437.18

> <XLogP>
5.49

> <TPSA_NOPS>
46

> <s_m_source_file>
ligprep_h3d.sdf

> <i_m_source_file_index>
5508

> <i_lp_mmshare_version>
55123

> <i_f3d_flags>
0

> <s_epik_input>
RkMoRikoRiljMVtjSF1bY0hdYyhbY0hdbjEpLWMoW2NIXVtjSF0yKVtjSF1jKGMyMyluYyhONFtDSDJdW0NIMl1bTkhdW0NIMl1bQ0gyXTQpbjNbQ0gyXWM1W2NIXVtjSF1bY0hdW2NIXVtjSF01

> <s_epik_cmdline>
J2VwaWtfcHl0aG9uJywgJy1waHQnLCAnMC41JywgJy1waCcsICc3LjUnLCAnLXRuJywgJzgnLCAnLW1hJywgJzUwMCcsICctaW1hZScsICc8aW5maWxlLm1hZT4nLCAnLW9tYWUnLCAnPG91dGZpbGUubWFlPic=

> <r_epik_Ionization_Penalty>
0.103713

> <r_epik_Ionization_Penalty_Charging>
0.0951419

> <r_epik_Ionization_Penalty_Neutral>
0.00857132

> <r_epik_State_Penalty>
0.0737741

> <r_epik_Charging_Adjusted_Penalty>
0.168916

> <i_epik_Tot_Q>
1

> <i_epik_Tot_abs_Q>
1

> <s_lp_Force_Field>
S-OPLS

> <r_lp_Energy>
55.8543

> <b_lp_Chiralities_Consistent>
1

> <s_lp_Variant>
ligprep_h3d.sdf:5508-1

> <ROCS_ShapeQuery>
_7L13

> <ROCS_TanimotoCombo>
0.806 

> <ROCS_ShapeTanimoto>
0.661 

> <ROCS_ColorTanimoto>
0.146 

> <ROCS_RefTversky>
0.761 

> <ROCS_RefColorTversky>
0.254 

> <ROCS_RefTverskyCombo>
1.015 

> <ROCS_FitTversky>
0.834 

> <ROCS_FitColorTversky>
0.254 

> <ROCS_FitTverskyCombo>
1.088 

> <ROCS_ColorScore>
-2.289

> <ROCS_Overlap>
1257.280

> <ROCS_Rank>
737                 

$$$$
ligprep_h3d.sdf:1144_1529
  -OEChem-08212117123D

 80 84  0     0  0  0  0  0  0999 V2000
  -19.9462   -4.2108  -32.3150 C   0  0  0  0  0  0  0  0  0  0  0  0
  -20.4720   -6.5379  -31.9338 C   0  0  0  0  0  0  0  0  0  0  0  0
  -19.3951   -4.5383  -33.5538 C   0  0  0  0  0  0  0  0  0  0  0  0
  -19.9210   -6.8653  -33.1726 C   0  0  0  0  0  0  0  0  0  0  0  0
  -16.8047   -5.8462  -26.4123 C   0  0  0  0  0  0  0  0  0  0  0  0
  -22.9670   -4.2221  -28.8966 C   0  0  0  0  0  0  0  0  0  0  0  0
  -20.6579   -4.1775  -25.4417 C   0  0  0  0  0  0  0  0  0  0  0  0
  -16.6451   -4.4661  -26.6392 C   0  0  0  0  0  0  0  0  0  0  0  0
  -20.8367   -4.5282  -27.8270 C   0  0  0  0  0  0  0  0  0  0  0  0
  -20.4846   -5.2107  -31.5049 C   0  0  0  0  0  0  0  0  0  0  0  0
  -21.0560   -4.8710  -30.2199 C   0  0  0  0  0  0  0  0  0  0  0  0
  -19.3825   -5.8655  -33.9826 C   0  0  0  0  0  0  0  0  0  0  0  0
  -22.4053   -4.5517  -30.1326 C   0  0  0  0  0  0  0  0  0  0  0  0
  -20.2716   -4.8597  -29.0702 C   0  0  0  0  0  0  0  0  0  0  0  0
  -22.2060   -4.2031  -27.7309 C   0  0  0  0  0  0  0  0  0  0  0  0
  -20.0702   -4.5090  -26.6540 C   0  0  0  0  0  0  0  0  0  0  0  0
  -22.0043   -3.8743  -25.4470 C   0  0  0  0  0  0  0  0  0  0  0  0
  -18.1649   -6.0354  -26.3897 C   0  0  0  0  0  0  0  0  0  0  0  0
  -22.6817   -3.5203  -24.2114 C   0  0  0  0  0  0  0  0  0  0  0  0
  -21.2291   -6.1508  -39.5965 C   0  0  0  0  0  0  0  0  0  0  0  0
  -20.1339   -8.0454  -38.3945 C   0  0  0  0  0  0  0  0  0  0  0  0
  -22.0137   -6.7496  -37.3033 C   0  0  0  0  0  0  0  0  0  0  0  0
  -19.1288   -7.2761  -37.5458 C   0  0  0  0  0  0  0  0  0  0  0  0
  -20.9888   -5.9940  -36.4660 C   0  0  0  0  0  0  0  0  0  0  0  0
  -21.4349   -7.2733  -38.6186 C   0  0  0  0  0  0  0  0  0  0  0  0
  -23.2930   -4.5472  -31.3366 C   0  0  0  0  0  0  0  0  0  0  0  0
  -18.8213   -5.2156  -29.2421 C   0  0  0  0  0  0  0  0  0  0  0  0
  -18.9601   -7.2633  -26.1922 C   0  0  0  0  0  0  0  0  0  0  0  0
  -27.8132   -3.7268  -23.9461 C   0  0  0  0  0  0  0  0  0  0  0  0
  -18.7895   -6.2178  -35.3150 C   0  0  0  0  0  0  0  0  0  0  0  0
  -24.8541   -2.8348  -23.1618 C   0  0  0  0  0  0  0  0  0  0  0  0
  -25.4795   -4.0285  -22.4659 C   0  0  0  0  0  0  0  0  0  0  0  0
  -17.8108   -3.8240  -26.7527 N   0  0  0  0  0  0  0  0  0  0  0  0
  -22.7791   -3.8810  -26.5559 N   0  0  0  0  0  0  0  0  0  0  0  0
  -18.7159   -4.8051  -26.5966 N   0  0  0  0  0  0  0  0  0  0  0  0
  -24.0481   -3.2255  -24.2961 N   0  0  0  0  0  0  0  0  0  0  0  0
  -19.7768   -6.8653  -36.2468 N   0  3  0  0  0  0  0  0  0  0  0  0
  -20.3087   -6.3334  -40.4408 O   0  5  0  0  0  0  0  0  0  0  0  0
  -22.0536   -3.4666  -23.1384 O   0  0  0  0  0  0  0  0  0  0  0  0
  -22.0070   -5.1674  -39.4454 O   0  0  0  0  0  0  0  0  0  0  0  0
  -25.8508   -5.2592  -24.7420 O   0  0  0  0  0  0  0  0  0  0  0  0
  -27.2132   -5.9657  -22.7379 O   0  0  0  0  0  0  0  0  0  0  0  0
  -26.5706   -4.9268  -23.5244 S   0  0  0  0  0  0  0  0  0  0  0  0
  -19.9479   -3.1717  -31.9944 H   0  0  0  0  0  0  0  0  0  0  0  0
  -20.8885   -7.3285  -31.3140 H   0  0  0  0  0  0  0  0  0  0  0  0
  -18.9768   -3.7530  -34.1778 H   0  0  0  0  0  0  0  0  0  0  0  0
  -19.9158   -7.9020  -33.4991 H   0  0  0  0  0  0  0  0  0  0  0  0
  -16.0390   -6.5973  -26.2839 H   0  0  0  0  0  0  0  0  0  0  0  0
  -24.0265   -3.9740  -28.8430 H   0  0  0  0  0  0  0  0  0  0  0  0
  -20.0867   -4.1550  -24.5177 H   0  0  0  0  0  0  0  0  0  0  0  0
  -15.7279   -3.9016  -26.7266 H   0  0  0  0  0  0  0  0  0  0  0  0
  -19.6688   -8.2979  -39.3553 H   0  0  0  0  0  0  0  0  0  0  0  0
  -20.3650   -8.9981  -37.9005 H   0  0  0  0  0  0  0  0  0  0  0  0
  -22.4002   -7.5952  -36.7204 H   0  0  0  0  0  0  0  0  0  0  0  0
  -22.8666   -6.0899  -37.5030 H   0  0  0  0  0  0  0  0  0  0  0  0
  -18.2716   -7.9115  -37.2991 H   0  0  0  0  0  0  0  0  0  0  0  0
  -18.7743   -6.3676  -38.0451 H   0  0  0  0  0  0  0  0  0  0  0  0
  -20.6532   -5.0707  -36.9503 H   0  0  0  0  0  0  0  0  0  0  0  0
  -21.4035   -5.7547  -35.4811 H   0  0  0  0  0  0  0  0  0  0  0  0
  -22.1736   -7.9513  -39.0818 H   0  0  0  0  0  0  0  0  0  0  0  0
  -23.2923   -3.5558  -31.8024 H   0  0  0  0  0  0  0  0  0  0  0  0
  -22.9576   -5.2834  -32.0762 H   0  0  0  0  0  0  0  0  0  0  0  0
  -24.3231   -4.8086  -31.0676 H   0  0  0  0  0  0  0  0  0  0  0  0
  -18.6879   -6.2936  -29.1220 H   0  0  0  0  0  0  0  0  0  0  0  0
  -18.4653   -4.9194  -30.2327 H   0  0  0  0  0  0  0  0  0  0  0  0
  -18.2052   -4.6946  -28.5037 H   0  0  0  0  0  0  0  0  0  0  0  0
  -19.1804   -7.4264  -25.1245 H   0  0  0  0  0  0  0  0  0  0  0  0
  -19.9222   -7.2243  -26.7309 H   0  0  0  0  0  0  0  0  0  0  0  0
  -18.4370   -8.1596  -26.5673 H   0  0  0  0  0  0  0  0  0  0  0  0
  -28.5398   -4.2015  -24.6075 H   0  0  0  0  0  0  0  0  0  0  0  0
  -28.2949   -3.3921  -23.0262 H   0  0  0  0  0  0  0  0  0  0  0  0
  -27.3269   -2.8901  -24.4499 H   0  0  0  0  0  0  0  0  0  0  0  0
  -18.4106   -5.3271  -35.8277 H   0  0  0  0  0  0  0  0  0  0  0  0
  -17.9554   -6.9189  -35.2038 H   0  0  0  0  0  0  0  0  0  0  0  0
  -25.6151   -2.1359  -23.5225 H   0  0  0  0  0  0  0  0  0  0  0  0
  -24.1941   -2.3003  -22.4719 H   0  0  0  0  0  0  0  0  0  0  0  0
  -26.0819   -3.6999  -21.6137 H   0  0  0  0  0  0  0  0  0  0  0  0
  -24.7227   -4.7351  -22.1120 H   0  0  0  0  0  0  0  0  0  0  0  0
  -24.4987   -3.2226  -25.2053 H   0  0  0  0  0  0  0  0  0  0  0  0
  -20.0973   -7.7240  -35.7791 H   0  0  0  0  0  0  0  0  0  0  0  0
  1  3  1  0  0  0  0
  1 10  2  0  0  0  0
  2  4  2  0  0  0  0
  2 10  1  0  0  0  0
  3 12  2  0  0  0  0
  4 12  1  0  0  0  0
  5  8  1  0  0  0  0
  5 18  2  0  0  0  0
  6 13  2  0  0  0  0
  6 15  1  0  0  0  0
  7 16  1  0  0  0  0
  7 17  2  0  0  0  0
  8 33  2  0  0  0  0
  9 14  1  0  0  0  0
  9 15  1  0  0  0  0
  9 16  2  0  0  0  0
 10 11  1  0  0  0  0
 11 13  1  0  0  0  0
 11 14  2  0  0  0  0
 12 30  1  0  0  0  0
 13 26  1  0  0  0  0
 14 27  1  0  0  0  0
 15 34  2  0  0  0  0
 16 35  1  0  0  0  0
 17 19  1  0  0  0  0
 17 34  1  0  0  0  0
 18 28  1  0  0  0  0
 18 35  1  0  0  0  0
 19 36  1  0  0  0  0
 19 39  2  0  0  0  0
 20 25  1  0  0  0  0
 20 38  1  0  0  0  0
 20 40  2  0  0  0  0
 21 23  1  0  0  0  0
 21 25  1  0  0  0  0
 22 24  1  0  0  0  0
 22 25  1  0  0  0  0
 23 37  1  0  0  0  0
 24 37  1  0  0  0  0
 29 43  1  0  0  0  0
 30 37  1  0  0  0  0
 31 32  1  0  0  0  0
 31 36  1  0  0  0  0
 32 43  1  0  0  0  0
 33 35  1  0  0  0  0
 41 43  2  0  0  0  0
 42 43  2  0  0  0  0
  1 44  1  0  0  0  0
  2 45  1  0  0  0  0
  3 46  1  0  0  0  0
  4 47  1  0  0  0  0
  5 48  1  0  0  0  0
  6 49  1  0  0  0  0
  7 50  1  0  0  0  0
  8 51  1  0  0  0  0
 21 52  1  0  0  0  0
 21 53  1  0  0  0  0
 22 54  1  0  0  0  0
 22 55  1  0  0  0  0
 23 56  1  0  0  0  0
 23 57  1  0  0  0  0
 24 58  1  0  0  0  0
 24 59  1  0  0  0  0
 25 60  1  0  0  0  0
 26 61  1  0  0  0  0
 26 62  1  0  0  0  0
 26 63  1  0  0  0  0
 27 64  1  0  0  0  0
 27 65  1  0  0  0  0
 27 66  1  0  0  0  0
 28 67  1  0  0  0  0
 28 68  1  0  0  0  0
 28 69  1  0  0  0  0
 29 70  1  0  0  0  0
 29 71  1  0  0  0  0
 29 72  1  0  0  0  0
 30 73  1  0  0  0  0
 30 74  1  0  0  0  0
 31 75  1  0  0  0  0
 31 76  1  0  0  0  0
 32 77  1  0  0  0  0
 32 78  1  0  0  0  0
 36 79  1  0  0  0  0
 37 80  1  0  0  0  0
M  CHG  2  37   1  38  -1
M  END
> <SMILES>
Cc1cc2nc(cc(c2c(c1-c1ccc(cc1)CN1CCC(CC1)C(=O)O)C)-n1nccc1C)C(=O)NCCS(=O)(=O)C

> <FORMATTED_ID>
H3D-007497

> <MOLFORMULA>
C32H37N5O5S

> <Exact Mass>
603.25

> <XLogP>
3.33

> <TPSA_NOPS>
142.9

> <s_m_source_file>
ligprep_h3d.sdf

> <i_m_source_file_index>
1144

> <i_lp_mmshare_version>
55123

> <i_f3d_flags>
0

> <s_epik_input>
Tz1TKD1PKShbQ0gzXSlbQ0gyXVtDSDJdW05IXUMoPU8pYyhuMSlbY0hdYygtbjJuW2NIXVtjSF1jMltDSDNdKWMoYzEzKWMoW0NIM10pYyhjKFtDSDNdKVtjSF0zKS1jNFtjSF1bY0hdYyhbY0hdW2NIXTQpW0NIMl1ONVtDSDJdW0NIMl1bQ0hdKFtDSDJdW0NIMl01KUMoPU8pW09IXQ==

> <s_epik_cmdline>
J2VwaWtfcHl0aG9uJywgJy1waHQnLCAnMC41JywgJy1waCcsICc3LjUnLCAnLXRuJywgJzgnLCAnLW1hJywgJzUwMCcsICctaW1hZScsICc8aW5maWxlLm1hZT4nLCAnLW9tYWUnLCAnPG91dGZpbGUubWFlPic=

> <r_lp_tautomer_probability>
1

> <r_epik_Ionization_Penalty>
0.0151994

> <r_epik_Ionization_Penalty_Charging>
0.0151774

> <r_epik_Ionization_Penalty_Neutral>
2.19513e-05

> <r_epik_State_Penalty>
0.0118007

> <r_epik_Charging_Adjusted_Penalty>
0.0269781

> <i_epik_Tot_Q>
0

> <i_epik_Tot_abs_Q>
2

> <s_lp_Force_Field>
S-OPLS

> <r_lp_Energy>
50.4844

> <b_lp_Chiralities_Consistent>
1

> <s_lp_Variant>
ligprep_h3d.sdf:1144-1

> <ROCS_ShapeQuery>
_7L13

> <ROCS_TanimotoCombo>
0.634 

> <ROCS_ShapeTanimoto>
0.545 

> <ROCS_ColorTanimoto>
0.089 

> <ROCS_RefTversky>
0.761 

> <ROCS_RefColorTversky>
0.219 

> <ROCS_RefTverskyCombo>
0.980 

> <ROCS_FitTversky>
0.657 

> <ROCS_FitColorTversky>
0.131 

> <ROCS_FitTverskyCombo>
0.788 

> <ROCS_ColorScore>
-2.050

> <ROCS_Overlap>
1274.489

> <ROCS_Rank>
738                 

$$$$
ligprep_h3d.sdf:4843_1744
  -OEChem-08212117123D

 61 65  0     1  0  0  0  0  0999 V2000
  -15.1217   -5.3636  -24.9840 C   0  0  0  0  0  0  0  0  0  0  0  0
  -24.9779   -5.0436  -22.5535 C   0  0  0  0  0  0  0  0  0  0  0  0
  -15.8284   -6.4399  -25.5203 C   0  0  0  0  0  0  0  0  0  0  0  0
  -15.6749   -4.0834  -25.0104 C   0  0  0  0  0  0  0  0  0  0  0  0
  -23.6667   -4.7924  -22.9575 C   0  0  0  0  0  0  0  0  0  0  0  0
  -26.0345   -4.8216  -23.4368 C   0  0  0  0  0  0  0  0  0  0  0  0
  -20.1105   -4.2810  -34.1659 C   0  0  0  0  0  0  0  0  0  0  0  0
  -20.4391   -6.1477  -32.6678 C   0  0  0  0  0  0  0  0  0  0  0  0
  -17.0883   -6.2360  -26.0831 C   0  0  0  0  0  0  0  0  0  0  0  0
  -16.9347   -3.8795  -25.5732 C   0  0  0  0  0  0  0  0  0  0  0  0
  -23.4120   -4.3191  -24.2446 C   0  0  0  0  0  0  0  0  0  0  0  0
  -25.7798   -4.3483  -24.7239 C   0  0  0  0  0  0  0  0  0  0  0  0
  -19.6024   -5.1472  -35.1339 C   0  0  0  0  0  0  0  0  0  0  0  0
  -19.9310   -7.0140  -33.6358 C   0  0  0  0  0  0  0  0  0  0  0  0
  -20.5288   -4.7812  -32.9328 C   0  0  0  0  0  0  0  0  0  0  0  0
  -17.6415   -4.9558  -26.1096 C   0  0  0  0  0  0  0  0  0  0  0  0
  -24.4686   -4.0971  -25.1279 C   0  0  0  0  0  0  0  0  0  0  0  0
  -19.5127   -6.5137  -34.8688 C   0  0  0  0  0  0  0  0  0  0  0  0
  -22.0910   -4.5239  -31.0039 C   0  0  0  0  0  0  0  0  0  0  0  0
  -22.6918   -5.1379  -28.6771 C   0  0  0  0  0  0  0  0  0  0  0  0
  -19.8296   -5.6506  -27.2811 C   0  0  0  0  0  0  0  0  0  0  0  0
  -19.8420   -3.6846  -26.5393 C   0  0  0  0  0  0  0  0  0  0  0  0
  -20.6151   -3.9264  -29.0318 C   0  0  0  0  0  0  0  0  0  0  0  0
  -22.2151   -4.6360  -27.3179 C   0  0  1  0  0  0  0  0  0  0  0  0
  -20.7226   -4.4142  -27.5832 C   0  0  0  0  0  0  0  0  0  0  0  0
  -21.0757   -3.8499  -31.8921 C   0  0  0  0  0  0  0  0  0  0  0  0
  -22.9155   -3.3362  -26.9265 C   0  0  0  0  0  0  0  0  0  0  0  0
  -18.9077   -4.7505  -26.6750 N   0  0  0  0  0  0  0  0  0  0  0  0
  -21.8005   -4.5168  -29.6489 N   0  0  0  0  0  0  0  0  0  0  0  0
  -24.2139   -3.6233  -26.4170 N   0  0  0  0  0  0  0  0  0  0  0  0
  -23.0981   -5.0406  -31.4907 O   0  0  0  0  0  0  0  0  0  0  0  0
  -19.0181   -7.3590  -35.8140 O   0  0  0  0  0  0  0  0  0  0  0  0
  -14.1405   -5.5225  -24.5459 H   0  0  0  0  0  0  0  0  0  0  0  0
  -25.1761   -5.4119  -21.5511 H   0  0  0  0  0  0  0  0  0  0  0  0
  -15.3977   -7.4364  -25.4997 H   0  0  0  0  0  0  0  0  0  0  0  0
  -15.1243   -3.2453  -24.5927 H   0  0  0  0  0  0  0  0  0  0  0  0
  -22.8443   -4.9651  -22.2698 H   0  0  0  0  0  0  0  0  0  0  0  0
  -27.0555   -5.0173  -23.1220 H   0  0  0  0  0  0  0  0  0  0  0  0
  -20.1767   -3.2178  -34.3809 H   0  0  0  0  0  0  0  0  0  0  0  0
  -20.7626   -6.5463  -31.7096 H   0  0  0  0  0  0  0  0  0  0  0  0
  -17.6308   -7.0814  -26.4985 H   0  0  0  0  0  0  0  0  0  0  0  0
  -17.3559   -2.8774  -25.5881 H   0  0  0  0  0  0  0  0  0  0  0  0
  -22.3867   -4.1264  -24.5496 H   0  0  0  0  0  0  0  0  0  0  0  0
  -26.6111   -4.1793  -25.4037 H   0  0  0  0  0  0  0  0  0  0  0  0
  -19.2784   -4.7515  -36.0928 H   0  0  0  0  0  0  0  0  0  0  0  0
  -19.8640   -8.0773  -33.4234 H   0  0  0  0  0  0  0  0  0  0  0  0
  -22.5502   -6.2215  -28.7655 H   0  0  0  0  0  0  0  0  0  0  0  0
  -23.7387   -4.9092  -28.8999 H   0  0  0  0  0  0  0  0  0  0  0  0
  -20.2392   -6.3696  -26.5630 H   0  0  0  0  0  0  0  0  0  0  0  0
  -19.4109   -6.1824  -28.1397 H   0  0  0  0  0  0  0  0  0  0  0  0
  -19.4353   -2.7153  -26.8382 H   0  0  0  0  0  0  0  0  0  0  0  0
  -20.2583   -3.6257  -25.5281 H   0  0  0  0  0  0  0  0  0  0  0  0
  -20.7068   -2.8375  -29.1030 H   0  0  0  0  0  0  0  0  0  0  0  0
  -19.7049   -4.2483  -29.5457 H   0  0  0  0  0  0  0  0  0  0  0  0
  -22.3939   -5.3838  -26.5374 H   0  0  0  0  0  0  0  0  0  0  0  0
  -20.2670   -3.4669  -31.2672 H   0  0  0  0  0  0  0  0  0  0  0  0
  -21.5469   -2.9829  -32.3575 H   0  0  0  0  0  0  0  0  0  0  0  0
  -22.3022   -2.8560  -26.1661 H   0  0  0  0  0  0  0  0  0  0  0  0
  -22.9819   -2.7231  -27.8235 H   0  0  0  0  0  0  0  0  0  0  0  0
  -25.0279   -3.4781  -27.0200 H   0  0  0  0  0  0  0  0  0  0  0  0
  -19.0192   -8.2714  -35.4830 H   0  0  0  0  0  0  0  0  0  0  0  0
  1  3  2  0  0  0  0
  1  4  1  0  0  0  0
  2  5  2  0  0  0  0
  2  6  1  0  0  0  0
  3  9  1  0  0  0  0
  4 10  2  0  0  0  0
  5 11  1  0  0  0  0
  6 12  2  0  0  0  0
  7 13  1  0  0  0  0
  7 15  2  0  0  0  0
  8 14  2  0  0  0  0
  8 15  1  0  0  0  0
  9 16  2  0  0  0  0
 10 16  1  0  0  0  0
 11 17  2  0  0  0  0
 12 17  1  0  0  0  0
 13 18  2  0  0  0  0
 14 18  1  0  0  0  0
 15 26  1  0  0  0  0
 16 28  1  0  0  0  0
 17 30  1  0  0  0  0
 18 32  1  0  0  0  0
 19 26  1  0  0  0  0
 19 29  1  0  0  0  0
 19 31  2  0  0  0  0
 20 24  1  0  0  0  0
 20 29  1  0  0  0  0
 21 25  1  0  0  0  0
 21 28  1  0  0  0  0
 22 25  1  0  0  0  0
 22 28  1  0  0  0  0
 23 25  1  0  0  0  0
 23 29  1  0  0  0  0
 24 25  1  0  0  0  0
 24 27  1  0  0  0  0
 27 30  1  0  0  0  0
  1 33  1  0  0  0  0
  2 34  1  0  0  0  0
  3 35  1  0  0  0  0
  4 36  1  0  0  0  0
  5 37  1  0  0  0  0
  6 38  1  0  0  0  0
  7 39  1  0  0  0  0
  8 40  1  0  0  0  0
  9 41  1  0  0  0  0
 10 42  1  0  0  0  0
 11 43  1  0  0  0  0
 12 44  1  0  0  0  0
 13 45  1  0  0  0  0
 14 46  1  0  0  0  0
 20 47  1  0  0  0  0
 20 48  1  0  0  0  0
 21 49  1  0  0  0  0
 21 50  1  0  0  0  0
 22 51  1  0  0  0  0
 22 52  1  0  0  0  0
 23 53  1  0  0  0  0
 23 54  1  0  0  0  0
 24 55  1  0  0  0  0
 26 56  1  0  0  0  0
 26 57  1  0  0  0  0
 27 58  1  0  0  0  0
 27 59  1  0  0  0  0
 30 60  1  0  0  0  0
 32 61  1  0  0  0  0
M  END
> <SMILES>
Oc1ccc(cc1)CC(=O)N1CC(CNc2ccccc2)C2(C1)CN(C2)c1ccccc1

> <FORMATTED_ID>
H3D-007519

> <MOLFORMULA>
C27H29N3O2

> <Exact Mass>
427.23

> <XLogP>
3.82

> <TPSA_NOPS>
55.8

> <s_m_source_file>
ligprep_h3d.sdf

> <i_m_source_file_index>
4843

> <i_lp_mmshare_version>
55123

> <i_f3d_flags>
0

> <s_epik_input>
W09IXWMxW2NIXVtjSF1jKFtjSF1bY0hdMSlbQ0gyXUMoPU8pTihbQ0gyXTIpW0NIMl1bQ0BIXShbQ0gyXVtOSF1jM1tjSF1bY0hdW2NIXVtjSF1bY0hdMylDMjRbQ0gyXU4oW0NIMl00KWM1W2NIXVtjSF1bY0hdW2NIXVtjSF01

> <s_epik_cmdline>
J2VwaWtfcHl0aG9uJywgJy1waHQnLCAnMC41JywgJy1waCcsICc3LjUnLCAnLXRuJywgJzgnLCAnLW1hJywgJzUwMCcsICctaW1hZScsICc8aW5maWxlLm1hZT4nLCAnLW9tYWUnLCAnPG91dGZpbGUubWFlPic=

> <r_lp_tautomer_probability>
1

> <r_epik_Ionization_Penalty>
0.00593126

> <r_epik_Ionization_Penalty_Charging>
0

> <r_epik_Ionization_Penalty_Neutral>
0.00593126

> <r_epik_State_Penalty>
-0

> <r_epik_Charging_Adjusted_Penalty>
0

> <i_epik_Tot_Q>
0

> <i_epik_Tot_abs_Q>
0

> <s_lp_Force_Field>
S-OPLS

> <r_lp_Energy>
45.3904

> <b_lp_Chiralities_Consistent>
1

> <s_lp_Variant>
ligprep_h3d.sdf:4843-1

> <ROCS_ShapeQuery>
_7L13

> <ROCS_TanimotoCombo>
0.740 

> <ROCS_ShapeTanimoto>
0.673 

> <ROCS_ColorTanimoto>
0.067 

> <ROCS_RefTversky>
0.761 

> <ROCS_RefColorTversky>
0.125 

> <ROCS_RefTverskyCombo>
0.886 

> <ROCS_FitTversky>
0.854 

> <ROCS_FitColorTversky>
0.125 

> <ROCS_FitTverskyCombo>
0.979 

> <ROCS_ColorScore>
-1.125

> <ROCS_Overlap>
1255.574

> <ROCS_Rank>
739                 

$$$$
ligprep_h3d.sdf:4984_1464
  -OEChem-08212117123D

 60 64  0     1  0  0  0  0  0999 V2000
  -23.2152   -4.3159  -24.0448 C   0  0  0  0  0  0  0  0  0  0  0  0
  -25.2633   -5.0033  -25.1266 C   0  0  0  0  0  0  0  0  0  0  0  0
  -23.9044   -4.1538  -22.8430 C   0  0  0  0  0  0  0  0  0  0  0  0
  -25.9524   -4.8413  -23.9248 C   0  0  0  0  0  0  0  0  0  0  0  0
  -19.5819   -5.6166  -33.8664 C   0  0  0  0  0  0  0  0  0  0  0  0
  -21.9369   -5.7985  -33.3929 C   0  0  0  0  0  0  0  0  0  0  0  0
  -16.8262   -5.3761  -25.4082 C   0  0  0  0  0  0  0  0  0  0  0  0
  -17.4651   -3.0561  -25.1940 C   0  0  0  0  0  0  0  0  0  0  0  0
  -15.7761   -3.9834  -23.7366 C   0  0  0  0  0  0  0  0  0  0  0  0
  -19.6572   -6.8226  -34.5487 C   0  0  0  0  0  0  0  0  0  0  0  0
  -21.9526   -6.9998  -34.0873 C   0  0  0  0  0  0  0  0  0  0  0  0
  -20.7365   -5.1029  -33.2840 C   0  0  0  0  0  0  0  0  0  0  0  0
  -17.6022   -4.2937  -25.8226 C   0  0  0  0  0  0  0  0  0  0  0  0
  -23.8947   -4.7405  -25.1867 C   0  0  0  0  0  0  0  0  0  0  0  0
  -25.2730   -4.4165  -22.7830 C   0  0  0  0  0  0  0  0  0  0  0  0
  -15.9132   -5.2210  -24.3652 C   0  0  0  0  0  0  0  0  0  0  0  0
  -16.5520   -2.9009  -24.1510 C   0  0  0  0  0  0  0  0  0  0  0  0
  -21.7061   -3.7433  -31.4296 C   0  0  0  0  0  0  0  0  0  0  0  0
  -22.1395   -4.1547  -29.0230 C   0  0  0  0  0  0  0  0  0  0  0  0
  -18.8569   -5.5763  -27.6737 C   0  0  0  0  0  0  0  0  0  0  0  0
  -19.1989   -3.4966  -27.6826 C   0  0  0  0  0  0  0  0  0  0  0  0
  -19.9194   -4.6498  -29.8737 C   0  0  0  0  0  0  0  0  0  0  0  0
  -21.4013   -4.9852  -27.9818 C   0  0  1  0  0  0  0  0  0  0  0  0
  -19.9360   -4.6953  -28.3433 C   0  0  0  0  0  0  0  0  0  0  0  0
  -20.6875   -3.8016  -32.5399 C   0  0  0  0  0  0  0  0  0  0  0  0
  -21.8111   -4.6619  -26.5571 C   0  0  0  0  0  0  0  0  0  0  0  0
  -20.8260   -7.4717  -34.6384 N   0  3  0  0  0  0  0  0  0  0  0  0
  -18.5194   -4.4490  -26.8711 N   0  0  0  0  0  0  0  0  0  0  0  0
  -21.2626   -4.1646  -30.1865 N   0  0  0  0  0  0  0  0  0  0  0  0
  -23.2046   -4.9028  -26.3902 N   0  0  0  0  0  0  0  0  0  0  0  0
  -20.8681   -8.5871  -35.2762 O   0  5  0  0  0  0  0  0  0  0  0  0
  -22.8474   -3.3355  -31.6527 O   0  0  0  0  0  0  0  0  0  0  0  0
  -25.9348   -4.2609  -21.6288 F   0  0  0  0  0  0  0  0  0  0  0  0
  -15.1669   -6.2603  -23.9688 F   0  0  0  0  0  0  0  0  0  0  0  0
  -16.4190   -1.7119  -23.5487 F   0  0  0  0  0  0  0  0  0  0  0  0
  -22.1488   -4.1086  -24.0803 H   0  0  0  0  0  0  0  0  0  0  0  0
  -25.8027   -5.3344  -26.0103 H   0  0  0  0  0  0  0  0  0  0  0  0
  -23.3757   -3.8234  -21.9538 H   0  0  0  0  0  0  0  0  0  0  0  0
  -27.0180   -5.0454  -23.8775 H   0  0  0  0  0  0  0  0  0  0  0  0
  -18.6351   -5.0907  -33.7936 H   0  0  0  0  0  0  0  0  0  0  0  0
  -22.8493   -5.4162  -32.9463 H   0  0  0  0  0  0  0  0  0  0  0  0
  -16.9244   -6.3445  -25.8916 H   0  0  0  0  0  0  0  0  0  0  0  0
  -18.0641   -2.2057  -25.5096 H   0  0  0  0  0  0  0  0  0  0  0  0
  -15.0639   -3.8630  -22.9255 H   0  0  0  0  0  0  0  0  0  0  0  0
  -18.8109   -7.2909  -35.0289 H   0  0  0  0  0  0  0  0  0  0  0  0
  -22.8392   -7.6019  -34.2191 H   0  0  0  0  0  0  0  0  0  0  0  0
  -23.0709   -4.6429  -29.3249 H   0  0  0  0  0  0  0  0  0  0  0  0
  -22.3664   -3.1340  -28.7086 H   0  0  0  0  0  0  0  0  0  0  0  0
  -19.2276   -6.4158  -27.0705 H   0  0  0  0  0  0  0  0  0  0  0  0
  -18.0274   -5.9183  -28.3031 H   0  0  0  0  0  0  0  0  0  0  0  0
  -18.5302   -2.9250  -28.3285 H   0  0  0  0  0  0  0  0  0  0  0  0
  -19.8294   -2.8247  -27.0936 H   0  0  0  0  0  0  0  0  0  0  0  0
  -19.2013   -3.9148  -30.2526 H   0  0  0  0  0  0  0  0  0  0  0  0
  -19.7331   -5.6173  -30.3487 H   0  0  0  0  0  0  0  0  0  0  0  0
  -21.6391   -6.0808  -28.1636 H   0  0  0  0  0  0  0  0  0  0  0  0
  -19.6957   -3.6509  -32.1100 H   0  0  0  0  0  0  0  0  0  0  0  0
  -20.8650   -2.9628  -33.2146 H   0  0  0  0  0  0  0  0  0  0  0  0
  -21.2287   -5.3057  -25.9003 H   0  0  0  0  0  0  0  0  0  0  0  0
  -21.5796   -3.6121  -26.3855 H   0  0  0  0  0  0  0  0  0  0  0  0
  -23.7549   -5.2151  -27.1945 H   0  0  0  0  0  0  0  0  0  0  0  0
  1  3  1  0  0  0  0
  1 14  2  0  0  0  0
  2  4  2  0  0  0  0
  2 14  1  0  0  0  0
  3 15  2  0  0  0  0
  4 15  1  0  0  0  0
  5 10  1  0  0  0  0
  5 12  2  0  0  0  0
  6 11  2  0  0  0  0
  6 12  1  0  0  0  0
  7 13  2  0  0  0  0
  7 16  1  0  0  0  0
  8 13  1  0  0  0  0
  8 17  2  0  0  0  0
  9 16  2  0  0  0  0
  9 17  1  0  0  0  0
 10 27  2  0  0  0  0
 11 27  1  0  0  0  0
 12 25  1  0  0  0  0
 13 28  1  0  0  0  0
 14 30  1  0  0  0  0
 15 33  1  0  0  0  0
 16 34  1  0  0  0  0
 17 35  1  0  0  0  0
 18 25  1  0  0  0  0
 18 29  1  0  0  0  0
 18 32  2  0  0  0  0
 19 23  1  0  0  0  0
 19 29  1  0  0  0  0
 20 24  1  0  0  0  0
 20 28  1  0  0  0  0
 21 24  1  0  0  0  0
 21 28  1  0  0  0  0
 22 24  1  0  0  0  0
 22 29  1  0  0  0  0
 23 24  1  0  0  0  0
 23 26  1  0  0  0  0
 26 30  1  0  0  0  0
 27 31  1  0  0  0  0
  1 36  1  0  0  0  0
  2 37  1  0  0  0  0
  3 38  1  0  0  0  0
  4 39  1  0  0  0  0
  5 40  1  0  0  0  0
  6 41  1  0  0  0  0
  7 42  1  0  0  0  0
  8 43  1  0  0  0  0
  9 44  1  0  0  0  0
 10 45  1  0  0  0  0
 11 46  1  0  0  0  0
 19 47  1  0  0  0  0
 19 48  1  0  0  0  0
 20 49  1  0  0  0  0
 20 50  1  0  0  0  0
 21 51  1  0  0  0  0
 21 52  1  0  0  0  0
 22 53  1  0  0  0  0
 22 54  1  0  0  0  0
 23 55  1  0  0  0  0
 25 56  1  0  0  0  0
 25 57  1  0  0  0  0
 26 58  1  0  0  0  0
 26 59  1  0  0  0  0
 30 60  1  0  0  0  0
M  CHG  2  27   1  31  -1
M  END
> <SMILES>
[O-][n+]1ccc(cc1)CC(=O)N1CC(CNc2ccc(cc2)F)C2(C1)CN(C2)c1cc(cc(c1)F)F

> <FORMATTED_ID>
H3D-008627

> <MOLFORMULA>
C26H25F3N4O2

> <Exact Mass>
482.19

> <XLogP>
4.56

> <TPSA_NOPS>
62.5

> <s_m_source_file>
ligprep_h3d.sdf

> <i_m_source_file_index>
4984

> <i_lp_mmshare_version>
55123

> <i_f3d_flags>
0

> <s_epik_input>
W08tXVtuK10xW2NIXVtjSF1jKFtjSF1bY0hdMSlbQ0gyXUMoPU8pTihbQ0gyXTIpW0NIMl1bQ0BIXShbQ0gyXVtOSF1jM1tjSF1bY0hdYyhGKVtjSF1bY0hdMylDMjRbQ0gyXU4oW0NIMl00KWM1W2NIXWMoRilbY0hdYyhGKVtjSF01

> <s_epik_cmdline>
J2VwaWtfcHl0aG9uJywgJy1waHQnLCAnMC41JywgJy1waCcsICc3LjUnLCAnLXRuJywgJzgnLCAnLW1hJywgJzUwMCcsICctaW1hZScsICc8aW5maWxlLm1hZT4nLCAnLW9tYWUnLCAnPG91dGZpbGUubWFlPic=

> <r_lp_tautomer_probability>
1

> <r_epik_Ionization_Penalty>
0.00238786

> <r_epik_Ionization_Penalty_Charging>
2.68326e-07

> <r_epik_Ionization_Penalty_Neutral>
0.00238759

> <r_epik_State_Penalty>
-0

> <r_epik_Charging_Adjusted_Penalty>
2.68326e-07

> <i_epik_Tot_Q>
0

> <i_epik_Tot_abs_Q>
2

> <s_lp_Force_Field>
S-OPLS

> <r_lp_Energy>
35.8579

> <b_lp_Chiralities_Consistent>
1

> <s_lp_Variant>
ligprep_h3d.sdf:4984-1

> <ROCS_ShapeQuery>
_7L13

> <ROCS_TanimotoCombo>
0.691 

> <ROCS_ShapeTanimoto>
0.627 

> <ROCS_ColorTanimoto>
0.063 

> <ROCS_RefTversky>
0.761 

> <ROCS_RefColorTversky>
0.113 

> <ROCS_RefTverskyCombo>
0.874 

> <ROCS_FitTversky>
0.782 

> <ROCS_FitColorTversky>
0.125 

> <ROCS_FitTverskyCombo>
0.907 

> <ROCS_ColorScore>
-1.012

> <ROCS_Overlap>
1261.253

> <ROCS_Rank>
740                 

$$$$
ligprep_h3d.sdf:4447_246
  -OEChem-08212117123D

 66 70  0     0  0  0  0  0  0999 V2000
  -19.3965   -8.8797  -35.3634 C   0  0  0  0  0  0  0  0  0  0  0  0
  -19.9554   -8.0395  -34.4004 C   0  0  0  0  0  0  0  0  0  0  0  0
  -19.2320   -8.4275  -36.6727 C   0  0  0  0  0  0  0  0  0  0  0  0
  -20.5388   -4.5431  -25.3080 C   0  0  0  0  0  0  0  0  0  0  0  0
  -20.1857   -6.2951  -36.0561 C   0  0  0  0  0  0  0  0  0  0  0  0
  -22.4237   -3.5579  -26.4309 C   0  0  0  0  0  0  0  0  0  0  0  0
  -21.3676   -4.6658  -30.4080 C   0  0  0  0  0  0  0  0  0  0  0  0
  -19.9120   -4.6184  -26.5414 C   0  0  0  0  0  0  0  0  0  0  0  0
  -22.9115   -3.3411  -32.3605 C   0  0  0  0  0  0  0  0  0  0  0  0
  -20.3501   -6.7472  -34.7467 C   0  0  0  0  0  0  0  0  0  0  0  0
  -21.8185   -4.0014  -25.2603 C   0  0  0  0  0  0  0  0  0  0  0  0
  -19.6267   -7.1353  -37.0190 C   0  0  0  0  0  0  0  0  0  0  0  0
  -22.0612   -4.3823  -32.7340 C   0  0  0  0  0  0  0  0  0  0  0  0
  -21.3114   -5.0179  -31.7495 C   0  0  0  0  0  0  0  0  0  0  0  0
  -21.7125   -3.6771  -27.6140 C   0  0  0  0  0  0  0  0  0  0  0  0
  -22.2409   -3.6215  -30.1401 C   0  0  0  0  0  0  0  0  0  0  0  0
  -20.9297   -5.8792  -33.7505 C   0  0  0  0  0  0  0  0  0  0  0  0
  -22.5227   -3.8999  -23.9867 C   0  0  0  0  0  0  0  0  0  0  0  0
  -24.1055   -5.8208  -24.5713 C   0  0  0  0  0  0  0  0  0  0  0  0
  -24.7601   -4.0942  -22.9385 C   0  0  0  0  0  0  0  0  0  0  0  0
  -25.5003   -5.7168  -25.1931 C   0  0  0  0  0  0  0  0  0  0  0  0
  -26.1329   -4.0136  -23.6037 C   0  0  0  0  0  0  0  0  0  0  0  0
  -28.2070   -6.6254  -25.3417 C   0  0  0  0  0  0  0  0  0  0  0  0
  -28.8405   -4.8165  -23.7245 C   0  0  0  0  0  0  0  0  0  0  0  0
  -27.8206   -4.2231  -25.9372 C   0  0  0  0  0  0  0  0  0  0  0  0
  -19.4525   -6.6530  -38.4195 C   0  0  0  0  0  0  0  0  0  0  0  0
  -27.8298   -5.2442  -24.7937 C   0  0  0  0  0  0  0  0  0  0  0  0
  -20.4678   -4.1979  -27.6998 N   0  0  0  0  0  0  0  0  0  0  0  0
  -22.9940   -2.9680  -31.0592 N   0  0  0  0  0  0  0  0  0  0  0  0
  -21.8118   -4.9299  -33.9705 N   0  0  0  0  0  0  0  0  0  0  0  0
  -20.5966   -5.9713  -32.4275 N   0  0  0  0  0  0  0  0  0  0  0  0
  -23.7441   -4.5821  -23.8705 N   0  0  0  0  0  0  0  0  0  0  0  0
  -26.4979   -5.3096  -24.1935 N   0  0  0  0  0  0  0  0  0  0  0  0
  -22.3420   -3.2203  -28.7985 N   0  0  0  0  0  0  0  0  0  0  0  0
  -22.0278   -3.2323  -23.0790 O   0  0  0  0  0  0  0  0  0  0  0  0
  -18.8954   -7.5810  -39.2528 F   0  0  0  0  0  0  0  0  0  0  0  0
  -20.6232   -6.2904  -39.0225 F   0  0  0  0  0  0  0  0  0  0  0  0
  -18.6440   -5.5563  -38.5004 F   0  0  0  0  0  0  0  0  0  0  0  0
  -19.0885   -9.8857  -35.0942 H   0  0  0  0  0  0  0  0  0  0  0  0
  -20.0763   -8.4069  -33.3841 H   0  0  0  0  0  0  0  0  0  0  0  0
  -18.7957   -9.0890  -37.4162 H   0  0  0  0  0  0  0  0  0  0  0  0
  -20.0383   -4.8988  -24.4137 H   0  0  0  0  0  0  0  0  0  0  0  0
  -20.4923   -5.2883  -36.3329 H   0  0  0  0  0  0  0  0  0  0  0  0
  -23.4225   -3.1314  -26.4139 H   0  0  0  0  0  0  0  0  0  0  0  0
  -20.7790   -5.1662  -29.6496 H   0  0  0  0  0  0  0  0  0  0  0  0
  -18.9134   -5.0329  -26.6325 H   0  0  0  0  0  0  0  0  0  0  0  0
  -23.5276   -2.7933  -33.0623 H   0  0  0  0  0  0  0  0  0  0  0  0
  -24.0763   -6.6280  -23.8291 H   0  0  0  0  0  0  0  0  0  0  0  0
  -23.3777   -6.0664  -25.3491 H   0  0  0  0  0  0  0  0  0  0  0  0
  -24.4782   -3.1115  -22.5461 H   0  0  0  0  0  0  0  0  0  0  0  0
  -24.7823   -4.7902  -22.0908 H   0  0  0  0  0  0  0  0  0  0  0  0
  -25.4752   -5.0108  -26.0339 H   0  0  0  0  0  0  0  0  0  0  0  0
  -25.7659   -6.6998  -25.6008 H   0  0  0  0  0  0  0  0  0  0  0  0
  -26.8682   -3.7344  -22.8393 H   0  0  0  0  0  0  0  0  0  0  0  0
  -26.1318   -3.2196  -24.3623 H   0  0  0  0  0  0  0  0  0  0  0  0
  -27.4975   -6.9542  -26.1099 H   0  0  0  0  0  0  0  0  0  0  0  0
  -28.2170   -7.3803  -24.5477 H   0  0  0  0  0  0  0  0  0  0  0  0
  -29.2007   -6.6088  -25.8044 H   0  0  0  0  0  0  0  0  0  0  0  0
  -28.5912   -3.8298  -23.3169 H   0  0  0  0  0  0  0  0  0  0  0  0
  -28.8493   -5.5208  -22.8845 H   0  0  0  0  0  0  0  0  0  0  0  0
  -29.8560   -4.7660  -24.1328 H   0  0  0  0  0  0  0  0  0  0  0  0
  -27.5534   -3.2244  -25.5729 H   0  0  0  0  0  0  0  0  0  0  0  0
  -27.1017   -4.5021  -26.7154 H   0  0  0  0  0  0  0  0  0  0  0  0
  -28.8089   -4.1435  -26.4049 H   0  0  0  0  0  0  0  0  0  0  0  0
  -19.9405   -6.6234  -32.0180 H   0  0  0  0  0  0  0  0  0  0  0  0
  -22.9879   -2.4562  -28.6390 H   0  0  0  0  0  0  0  0  0  0  0  0
  1  2  1  0  0  0  0
  1  3  2  0  0  0  0
  2 10  2  0  0  0  0
  3 12  1  0  0  0  0
  4  8  1  0  0  0  0
  4 11  2  0  0  0  0
  5 10  1  0  0  0  0
  5 12  2  0  0  0  0
  6 11  1  0  0  0  0
  6 15  2  0  0  0  0
  7 14  1  0  0  0  0
  7 16  2  0  0  0  0
  8 28  2  0  0  0  0
  9 13  1  0  0  0  0
  9 29  2  0  0  0  0
 10 17  1  0  0  0  0
 11 18  1  0  0  0  0
 12 26  1  0  0  0  0
 13 14  2  0  0  0  0
 13 30  1  0  0  0  0
 14 31  1  0  0  0  0
 15 28  1  0  0  0  0
 15 34  1  0  0  0  0
 16 29  1  0  0  0  0
 16 34  1  0  0  0  0
 17 30  2  0  0  0  0
 17 31  1  0  0  0  0
 18 32  1  0  0  0  0
 18 35  2  0  0  0  0
 19 21  1  0  0  0  0
 19 32  1  0  0  0  0
 20 22  1  0  0  0  0
 20 32  1  0  0  0  0
 21 33  1  0  0  0  0
 22 33  1  0  0  0  0
 23 27  1  0  0  0  0
 24 27  1  0  0  0  0
 25 27  1  0  0  0  0
 26 36  1  0  0  0  0
 26 37  1  0  0  0  0
 26 38  1  0  0  0  0
 27 33  1  0  0  0  0
  1 39  1  0  0  0  0
  2 40  1  0  0  0  0
  3 41  1  0  0  0  0
  4 42  1  0  0  0  0
  5 43  1  0  0  0  0
  6 44  1  0  0  0  0
  7 45  1  0  0  0  0
  8 46  1  0  0  0  0
  9 47  1  0  0  0  0
 19 48  1  0  0  0  0
 19 49  1  0  0  0  0
 20 50  1  0  0  0  0
 20 51  1  0  0  0  0
 21 52  1  0  0  0  0
 21 53  1  0  0  0  0
 22 54  1  0  0  0  0
 22 55  1  0  0  0  0
 23 56  1  0  0  0  0
 23 57  1  0  0  0  0
 23 58  1  0  0  0  0
 24 59  1  0  0  0  0
 24 60  1  0  0  0  0
 24 61  1  0  0  0  0
 25 62  1  0  0  0  0
 25 63  1  0  0  0  0
 25 64  1  0  0  0  0
 31 65  1  0  0  0  0
 34 66  1  0  0  0  0
M  END
> <SMILES>
CC(C)(C)N1CCN(CC1)C(=O)c1ccnc(c1)Nc1cc2[nH]c(nc2cn1)-c1cccc(c1)C(F)(F)F

> <FORMATTED_ID>
H3D-004110

> <MOLFORMULA>
C27H28F3N7O

> <Exact Mass>
523.23

> <XLogP>
5.44

> <TPSA_NOPS>
90

> <s_m_source_file>
ligprep_h3d.sdf

> <i_m_source_file_index>
4447

> <i_lp_mmshare_version>
55123

> <i_f3d_flags>
0

> <s_epik_input>
W0NIM11DKFtDSDNdKShbQ0gzXSlOMVtDSDJdW0NIMl1OKFtDSDJdW0NIMl0xKUMoPU8pYzJbY0hdW2NIXW5jKFtjSF0yKVtOSF1jKFtjSF0zKVtuSF1bY0hdYyhjMzQpbmMobjQpLWM1W2NIXVtjSF1bY0hdYyhbY0hdNSlDKEYpKEYpRg==

> <s_epik_cmdline>
J2VwaWtfcHl0aG9uJywgJy1waHQnLCAnMC41JywgJy1waCcsICc3LjUnLCAnLXRuJywgJzgnLCAnLW1hJywgJzUwMCcsICctaW1hZScsICc8aW5maWxlLm1hZT4nLCAnLW9tYWUnLCAnPG91dGZpbGUubWFlPic=

> <r_lp_tautomer_probability>
1

> <r_epik_Ionization_Penalty>
0.356863

> <r_epik_Ionization_Penalty_Charging>
0.153116

> <r_epik_Ionization_Penalty_Neutral>
0.203748

> <r_epik_State_Penalty>
-0

> <r_epik_Charging_Adjusted_Penalty>
0.153116

> <i_epik_Tot_Q>
0

> <i_epik_Tot_abs_Q>
0

> <s_lp_Force_Field>
S-OPLS

> <r_lp_Energy>
68.9822

> <b_lp_Chiralities_Consistent>
1

> <s_lp_Variant>
ligprep_h3d.sdf:4447-1

> <ROCS_ShapeQuery>
_7L13

> <ROCS_TanimotoCombo>
0.755 

> <ROCS_ShapeTanimoto>
0.585 

> <ROCS_ColorTanimoto>
0.170 

> <ROCS_RefTversky>
0.761 

> <ROCS_RefColorTversky>
0.347 

> <ROCS_RefTverskyCombo>
1.108 

> <ROCS_FitTversky>
0.717 

> <ROCS_FitColorTversky>
0.249 

> <ROCS_FitTverskyCombo>
0.966 

> <ROCS_ColorScore>
-3.193

> <ROCS_Overlap>
1267.373

> <ROCS_Rank>
741                 

$$$$
ligprep_h3d.sdf:848_76
  -OEChem-08212117123D

 63 68  0     1  0  0  0  0  0999 V2000
  -20.9977   -5.1621  -29.5031 C   0  0  0  0  0  0  0  0  0  0  0  0
  -21.7568   -4.3903  -30.3852 C   0  0  0  0  0  0  0  0  0  0  0  0
  -21.1079   -4.9136  -28.1137 C   0  0  0  0  0  0  0  0  0  0  0  0
  -21.9871   -3.9405  -27.5823 C   0  0  0  0  0  0  0  0  0  0  0  0
  -22.5858   -3.4216  -29.8634 C   0  0  0  0  0  0  0  0  0  0  0  0
  -22.7301   -3.1617  -28.5004 C   0  0  0  0  0  0  0  0  0  0  0  0
  -21.9496   -4.2833  -31.7752 C   0  0  0  0  0  0  0  0  0  0  0  0
  -18.9010   -3.8432  -26.2432 C   0  0  0  0  0  0  0  0  0  0  0  0
  -19.2534   -6.0460  -25.0083 C   0  0  0  0  0  0  0  0  0  0  0  0
  -17.0668   -5.2027  -25.8327 C   0  0  0  0  0  0  0  0  0  0  0  0
  -19.9644   -3.8229  -34.2511 C   0  0  0  0  0  0  0  0  0  0  0  0
  -20.2647   -5.7487  -27.1877 C   0  0  0  0  0  0  0  0  0  0  0  0
  -19.4954   -6.2067  -33.7391 C   0  0  0  0  0  0  0  0  0  0  0  0
  -21.8072   -6.3839  -33.1284 C   0  0  0  0  0  0  0  0  0  0  0  0
  -23.0450   -2.7861  -25.6507 C   0  0  0  0  0  0  0  0  0  0  0  0
  -19.9285   -4.8566  -33.1685 C   0  0  2  0  0  0  0  0  0  0  0  0
  -21.2070   -4.4647  -25.2367 C   0  0  2  0  0  0  0  0  0  0  0  0
  -20.8044   -6.8489  -34.1820 C   0  0  2  0  0  0  0  0  0  0  0  0
  -23.4160   -3.0965  -24.1976 C   0  0  1  0  0  0  0  0  0  0  0  0
  -21.0420   -3.5260  -24.0055 C   0  0  2  0  0  0  0  0  0  0  0  0
  -19.8866   -4.9834  -25.8955 C   0  0  2  0  0  0  0  0  0  0  0  0
  -24.4077   -4.2522  -24.0786 C   0  0  0  0  0  0  0  0  0  0  0  0
  -20.0842   -3.9985  -22.9189 C   0  0  0  0  0  0  0  0  0  0  0  0
  -18.6048   -2.7034  -35.8265 C   0  0  0  0  0  0  0  0  0  0  0  0
  -22.8250   -3.3249  -32.0932 N   0  0  0  0  0  0  0  0  0  0  0  0
  -17.6417   -4.2015  -26.5004 N   0  5  0  0  0  0  0  0  0  0  0  0
  -17.8739   -6.0419  -25.0668 N   0  0  0  0  0  0  0  0  0  0  0  0
  -22.0936   -3.7595  -26.2011 N   0  0  3  0  0  0  0  0  0  0  0  0
  -21.2834   -5.0967  -32.6719 N   0  0  0  0  0  0  0  0  0  0  0  0
  -19.3021   -2.6882  -26.3841 O   0  0  0  0  0  0  0  0  0  0  0  0
  -19.8935   -6.8755  -24.3659 O   0  0  0  0  0  0  0  0  0  0  0  0
  -15.8547   -5.4295  -25.8788 O   0  0  0  0  0  0  0  0  0  0  0  0
  -20.9752   -3.2244  -34.5937 O   0  0  0  0  0  0  0  0  0  0  0  0
  -23.2249   -2.7791  -30.8791 O   0  0  0  0  0  0  0  0  0  0  0  0
  -22.3051   -3.3640  -23.3468 O   0  0  0  0  0  0  0  0  0  0  0  0
  -20.6825   -8.2578  -34.2054 O   0  0  0  0  0  0  0  0  0  0  0  0
  -18.7152   -3.6675  -34.7747 O   0  0  0  0  0  0  0  0  0  0  0  0
  -23.4881   -2.1204  -28.1364 F   0  0  0  0  0  0  0  0  0  0  0  0
  -20.3280   -5.9319  -29.8758 H   0  0  0  0  0  0  0  0  0  0  0  0
  -20.8334   -6.6581  -26.9495 H   0  0  0  0  0  0  0  0  0  0  0  0
  -19.3570   -6.0783  -27.7102 H   0  0  0  0  0  0  0  0  0  0  0  0
  -18.7930   -6.1214  -34.5751 H   0  0  0  0  0  0  0  0  0  0  0  0
  -19.0137   -6.8160  -32.9641 H   0  0  0  0  0  0  0  0  0  0  0  0
  -22.8098   -6.2787  -33.5592 H   0  0  0  0  0  0  0  0  0  0  0  0
  -21.8683   -7.0952  -32.2947 H   0  0  0  0  0  0  0  0  0  0  0  0
  -23.9569   -2.8241  -26.2816 H   0  0  0  0  0  0  0  0  0  0  0  0
  -22.7255   -1.7333  -25.6950 H   0  0  0  0  0  0  0  0  0  0  0  0
  -19.2394   -4.5248  -32.3884 H   0  0  0  0  0  0  0  0  0  0  0  0
  -21.7880   -5.3390  -24.9015 H   0  0  0  0  0  0  0  0  0  0  0  0
  -21.0904   -6.4948  -35.1792 H   0  0  0  0  0  0  0  0  0  0  0  0
  -23.9571   -2.1860  -23.7626 H   0  0  0  0  0  0  0  0  0  0  0  0
  -20.7041   -2.5213  -24.3174 H   0  0  0  0  0  0  0  0  0  0  0  0
  -23.9650   -5.1661  -24.4751 H   0  0  0  0  0  0  0  0  0  0  0  0
  -25.3138   -4.0257  -24.6408 H   0  0  0  0  0  0  0  0  0  0  0  0
  -24.6710   -4.4117  -23.0328 H   0  0  0  0  0  0  0  0  0  0  0  0
  -20.3731   -4.9910  -22.5730 H   0  0  0  0  0  0  0  0  0  0  0  0
  -20.1084   -3.3089  -22.0750 H   0  0  0  0  0  0  0  0  0  0  0  0
  -19.0680   -4.0424  -23.3110 H   0  0  0  0  0  0  0  0  0  0  0  0
  -17.5694   -2.6576  -36.1727 H   0  0  0  0  0  0  0  0  0  0  0  0
  -18.9210   -1.7239  -35.4588 H   0  0  0  0  0  0  0  0  0  0  0  0
  -19.2504   -3.0053  -36.6546 H   0  0  0  0  0  0  0  0  0  0  0  0
  -17.3948   -6.7254  -24.4882 H   0  0  0  0  0  0  0  0  0  0  0  0
  -19.9736   -8.4741  -34.8356 H   0  0  0  0  0  0  0  0  0  0  0  0
  1  2  2  0  0  0  0
  1  3  1  0  0  0  0
  2  5  1  0  0  0  0
  2  7  1  0  0  0  0
  3  4  2  0  0  0  0
  3 12  1  0  0  0  0
  4  6  1  0  0  0  0
  4 28  1  0  0  0  0
  5  6  2  0  0  0  0
  5 34  1  0  0  0  0
  6 38  1  0  0  0  0
  7 25  2  0  0  0  0
  7 29  1  0  0  0  0
  8 21  1  0  0  0  0
  8 26  1  0  0  0  0
  8 30  2  0  0  0  0
  9 21  1  0  0  0  0
  9 27  1  0  0  0  0
  9 31  2  0  0  0  0
 10 26  1  0  0  0  0
 10 27  1  0  0  0  0
 10 32  2  0  0  0  0
 11 16  1  0  0  0  0
 11 33  2  0  0  0  0
 11 37  1  0  0  0  0
 12 21  1  0  0  0  0
 13 16  1  0  0  0  0
 13 18  1  0  0  0  0
 14 18  1  0  0  0  0
 14 29  1  0  0  0  0
 15 19  1  0  0  0  0
 15 28  1  0  0  0  0
 16 29  1  0  0  0  0
 17 20  1  0  0  0  0
 17 21  1  0  0  0  0
 17 28  1  0  0  0  0
 18 36  1  0  0  0  0
 19 22  1  0  0  0  0
 19 35  1  0  0  0  0
 20 23  1  0  0  0  0
 20 35  1  0  0  0  0
 24 37  1  0  0  0  0
 25 34  1  0  0  0  0
  1 39  1  0  0  0  0
 12 40  1  0  0  0  0
 12 41  1  0  0  0  0
 13 42  1  0  0  0  0
 13 43  1  0  0  0  0
 14 44  1  0  0  0  0
 14 45  1  0  0  0  0
 15 46  1  0  0  0  0
 15 47  1  0  0  0  0
 16 48  1  0  0  0  0
 17 49  1  0  0  0  0
 18 50  1  0  0  0  0
 19 51  1  0  0  0  0
 20 52  1  0  0  0  0
 22 53  1  0  0  0  0
 22 54  1  0  0  0  0
 22 55  1  0  0  0  0
 23 56  1  0  0  0  0
 23 57  1  0  0  0  0
 23 58  1  0  0  0  0
 24 59  1  0  0  0  0
 24 60  1  0  0  0  0
 24 61  1  0  0  0  0
 27 62  1  0  0  0  0
 36 63  1  0  0  0  0
M  CHG  1  26  -1
M  END
> <SMILES>
COC(=O)C1C[C@@H](O)CN1c1noc2c(c3c(cc12)CC1([C@H]2[C@H](C)O[C@H](C)CN23)C(=O)NC(=O)NC1=O)F

> <FORMATTED_ID>
H3D-005655

> <MOLFORMULA>
C24H26FN5O8

> <Exact Mass>
531.18

> <XLogP>
-0.34

> <TPSA_NOPS>
163.8

> <s_m_source_file>
ligprep_h3d.sdf

> <i_m_source_file_index>
848

> <i_lp_mmshare_version>
55123

> <i_f3d_flags>
0

> <s_epik_input>
W0NIM11PQyg9TylbQ0BASF0xW0NIMl1bQ0BASF0oW09IXSlbQ0gyXU4xYzJub2MoYzNGKWMyW2NIXWMoW0NIMl00KWMzTihbQ0gyXVtDQEBIXShbQ0gzXSlPW0NASF01W0NIM10pW0NASF01QzQ2Qyg9TylbTkhdQyg9TylbTkhdQzY9Tw==

> <s_epik_cmdline>
J2VwaWtfcHl0aG9uJywgJy1waHQnLCAnMC41JywgJy1waCcsICc3LjUnLCAnLXRuJywgJzgnLCAnLW1hJywgJzUwMCcsICctaW1hZScsICc8aW5maWxlLm1hZT4nLCAnLW9tYWUnLCAnPG91dGZpbGUubWFlPic=

> <r_lp_tautomer_probability>
1

> <r_epik_Ionization_Penalty>
0.455388

> <r_epik_Ionization_Penalty_Charging>
0.455373

> <r_epik_Ionization_Penalty_Neutral>
1.47596e-05

> <r_epik_State_Penalty>
0.458483

> <r_epik_Charging_Adjusted_Penalty>
0.913857

> <i_epik_Tot_Q>
-1

> <i_epik_Tot_abs_Q>
1

> <s_epik_Chemistry_Notes>
This compound has an ester and may undergo hydrolysis at high or low pH.

> <s_lp_Force_Field>
S-OPLS

> <r_lp_Energy>
59.7355

> <b_lp_Chiralities_Consistent>
1

> <s_lp_Variant>
ligprep_h3d.sdf:848-2

> <ROCS_ShapeQuery>
_7L13

> <ROCS_TanimotoCombo>
0.697 

> <ROCS_ShapeTanimoto>
0.578 

> <ROCS_ColorTanimoto>
0.119 

> <ROCS_RefTversky>
0.761 

> <ROCS_RefColorTversky>
0.295 

> <ROCS_RefTverskyCombo>
1.056 

> <ROCS_FitTversky>
0.706 

> <ROCS_FitColorTversky>
0.167 

> <ROCS_FitTverskyCombo>
0.873 

> <ROCS_ColorScore>
-2.775

> <ROCS_Overlap>
1268.471

> <ROCS_Rank>
742                 

$$$$
ligprep_h3d.sdf:4686_1747
  -OEChem-08212117123D

 62 66  0     1  0  0  0  0  0999 V2000
  -15.1255   -5.3919  -25.0043 C   0  0  0  0  0  0  0  0  0  0  0  0
  -24.9757   -5.0428  -22.5533 C   0  0  0  0  0  0  0  0  0  0  0  0
  -15.8376   -6.4631  -25.5438 C   0  0  0  0  0  0  0  0  0  0  0  0
  -15.6736   -4.1094  -25.0242 C   0  0  0  0  0  0  0  0  0  0  0  0
  -23.6642   -4.7951  -22.9587 C   0  0  0  0  0  0  0  0  0  0  0  0
  -26.0330   -4.8128  -23.4335 C   0  0  0  0  0  0  0  0  0  0  0  0
  -20.1266   -4.2503  -34.1716 C   0  0  0  0  0  0  0  0  0  0  0  0
  -20.4612   -6.1214  -32.6803 C   0  0  0  0  0  0  0  0  0  0  0  0
  -17.0978   -6.2517  -26.1033 C   0  0  0  0  0  0  0  0  0  0  0  0
  -16.9337   -3.8980  -25.5837 C   0  0  0  0  0  0  0  0  0  0  0  0
  -23.4101   -4.3173  -24.2443 C   0  0  0  0  0  0  0  0  0  0  0  0
  -25.7789   -4.3350  -24.7191 C   0  0  0  0  0  0  0  0  0  0  0  0
  -19.6231   -5.1149  -35.1435 C   0  0  0  0  0  0  0  0  0  0  0  0
  -19.9577   -6.9861  -33.6522 C   0  0  0  0  0  0  0  0  0  0  0  0
  -20.5456   -4.7536  -32.9400 C   0  0  0  0  0  0  0  0  0  0  0  0
  -17.6458   -4.9692  -26.1232 C   0  0  0  0  0  0  0  0  0  0  0  0
  -19.5386   -6.4828  -34.8838 C   0  0  0  0  0  0  0  0  0  0  0  0
  -24.4675   -4.0873  -25.1246 C   0  0  0  0  0  0  0  0  0  0  0  0
  -22.1030   -4.4983  -31.0070 C   0  0  0  0  0  0  0  0  0  0  0  0
  -22.7017   -5.1199  -28.6816 C   0  0  0  0  0  0  0  0  0  0  0  0
  -19.8390   -5.6501  -27.2935 C   0  0  0  0  0  0  0  0  0  0  0  0
  -19.8421   -3.6873  -26.5432 C   0  0  0  0  0  0  0  0  0  0  0  0
  -20.6209   -3.9152  -29.0352 C   0  0  0  0  0  0  0  0  0  0  0  0
  -22.2204   -4.6258  -27.3212 C   0  0  1  0  0  0  0  0  0  0  0  0
  -20.7276   -4.4089  -27.5885 C   0  0  0  0  0  0  0  0  0  0  0  0
  -21.0867   -3.8246  -31.8943 C   0  0  0  0  0  0  0  0  0  0  0  0
  -22.9149   -3.3249  -26.9229 C   0  0  0  0  0  0  0  0  0  0  0  0
  -18.9123   -4.7564  -26.6853 N   0  0  0  0  0  0  0  0  0  0  0  0
  -21.8099   -4.4982  -29.6525 N   0  0  0  0  0  0  0  0  0  0  0  0
  -19.0314   -7.3576  -35.8668 N   0  0  0  0  0  0  0  0  0  0  0  0
  -24.2134   -3.6089  -26.4121 N   0  0  0  0  0  0  0  0  0  0  0  0
  -23.1131   -5.0089  -31.4940 O   0  0  0  0  0  0  0  0  0  0  0  0
  -14.1442   -5.5566  -24.5688 H   0  0  0  0  0  0  0  0  0  0  0  0
  -25.1734   -5.4146  -21.5521 H   0  0  0  0  0  0  0  0  0  0  0  0
  -15.4108   -7.4614  -25.5284 H   0  0  0  0  0  0  0  0  0  0  0  0
  -15.1189   -3.2753  -24.6040 H   0  0  0  0  0  0  0  0  0  0  0  0
  -22.8412   -4.9741  -22.2734 H   0  0  0  0  0  0  0  0  0  0  0  0
  -27.0543   -5.0057  -23.1176 H   0  0  0  0  0  0  0  0  0  0  0  0
  -20.1878   -3.1860  -34.3821 H   0  0  0  0  0  0  0  0  0  0  0  0
  -20.7836   -6.5223  -31.7231 H   0  0  0  0  0  0  0  0  0  0  0  0
  -17.6445   -7.0931  -26.5212 H   0  0  0  0  0  0  0  0  0  0  0  0
  -17.3509   -2.8942  -25.5933 H   0  0  0  0  0  0  0  0  0  0  0  0
  -22.3846   -4.1274  -24.5505 H   0  0  0  0  0  0  0  0  0  0  0  0
  -26.6109   -4.1596  -25.3965 H   0  0  0  0  0  0  0  0  0  0  0  0
  -19.2980   -4.7122  -36.0993 H   0  0  0  0  0  0  0  0  0  0  0  0
  -19.8958   -8.0501  -33.4388 H   0  0  0  0  0  0  0  0  0  0  0  0
  -22.5647   -6.2037  -28.7750 H   0  0  0  0  0  0  0  0  0  0  0  0
  -23.7482   -4.8860  -28.9014 H   0  0  0  0  0  0  0  0  0  0  0  0
  -20.2501   -6.3706  -26.5777 H   0  0  0  0  0  0  0  0  0  0  0  0
  -19.4241   -6.1799  -28.1552 H   0  0  0  0  0  0  0  0  0  0  0  0
  -19.4320   -2.7183  -26.8387 H   0  0  0  0  0  0  0  0  0  0  0  0
  -20.2561   -3.6311  -25.5309 H   0  0  0  0  0  0  0  0  0  0  0  0
  -20.7083   -2.8257  -29.1016 H   0  0  0  0  0  0  0  0  0  0  0  0
  -19.7130   -4.2386  -29.5523 H   0  0  0  0  0  0  0  0  0  0  0  0
  -22.4008   -5.3762  -26.5436 H   0  0  0  0  0  0  0  0  0  0  0  0
  -20.2753   -3.4476  -31.2693 H   0  0  0  0  0  0  0  0  0  0  0  0
  -21.5553   -2.9537  -32.3550 H   0  0  0  0  0  0  0  0  0  0  0  0
  -22.2981   -2.8504  -26.1616 H   0  0  0  0  0  0  0  0  0  0  0  0
  -22.9805   -2.7077  -27.8171 H   0  0  0  0  0  0  0  0  0  0  0  0
  -18.7796   -6.9915  -36.7627 H   0  0  0  0  0  0  0  0  0  0  0  0
  -19.0201   -8.3410  -35.6856 H   0  0  0  0  0  0  0  0  0  0  0  0
  -25.0280   -3.4578  -27.0129 H   0  0  0  0  0  0  0  0  0  0  0  0
  1  3  2  0  0  0  0
  1  4  1  0  0  0  0
  2  5  2  0  0  0  0
  2  6  1  0  0  0  0
  3  9  1  0  0  0  0
  4 10  2  0  0  0  0
  5 11  1  0  0  0  0
  6 12  2  0  0  0  0
  7 13  1  0  0  0  0
  7 15  2  0  0  0  0
  8 14  2  0  0  0  0
  8 15  1  0  0  0  0
  9 16  2  0  0  0  0
 10 16  1  0  0  0  0
 11 18  2  0  0  0  0
 12 18  1  0  0  0  0
 13 17  2  0  0  0  0
 14 17  1  0  0  0  0
 15 26  1  0  0  0  0
 16 28  1  0  0  0  0
 17 30  1  0  0  0  0
 18 31  1  0  0  0  0
 19 26  1  0  0  0  0
 19 29  1  0  0  0  0
 19 32  2  0  0  0  0
 20 24  1  0  0  0  0
 20 29  1  0  0  0  0
 21 25  1  0  0  0  0
 21 28  1  0  0  0  0
 22 25  1  0  0  0  0
 22 28  1  0  0  0  0
 23 25  1  0  0  0  0
 23 29  1  0  0  0  0
 24 25  1  0  0  0  0
 24 27  1  0  0  0  0
 27 31  1  0  0  0  0
  1 33  1  0  0  0  0
  2 34  1  0  0  0  0
  3 35  1  0  0  0  0
  4 36  1  0  0  0  0
  5 37  1  0  0  0  0
  6 38  1  0  0  0  0
  7 39  1  0  0  0  0
  8 40  1  0  0  0  0
  9 41  1  0  0  0  0
 10 42  1  0  0  0  0
 11 43  1  0  0  0  0
 12 44  1  0  0  0  0
 13 45  1  0  0  0  0
 14 46  1  0  0  0  0
 20 47  1  0  0  0  0
 20 48  1  0  0  0  0
 21 49  1  0  0  0  0
 21 50  1  0  0  0  0
 22 51  1  0  0  0  0
 22 52  1  0  0  0  0
 23 53  1  0  0  0  0
 23 54  1  0  0  0  0
 24 55  1  0  0  0  0
 26 56  1  0  0  0  0
 26 57  1  0  0  0  0
 27 58  1  0  0  0  0
 27 59  1  0  0  0  0
 30 60  1  0  0  0  0
 30 61  1  0  0  0  0
 31 62  1  0  0  0  0
M  END
> <SMILES>
Nc1ccc(cc1)CC(=O)N1CC(CNc2ccccc2)C2(C1)CN(C2)c1ccccc1

> <FORMATTED_ID>
H3D-006117

> <MOLFORMULA>
C27H30N4O

> <Exact Mass>
426.24

> <XLogP>
3.44

> <TPSA_NOPS>
61.6

> <s_m_source_file>
ligprep_h3d.sdf

> <i_m_source_file_index>
4686

> <i_lp_mmshare_version>
55123

> <i_f3d_flags>
0

> <s_epik_input>
W05IMl1jMVtjSF1bY0hdYyhbY0hdW2NIXTEpW0NIMl1DKD1PKU4oW0NIMl0yKVtDSDJdW0NASF0oW0NIMl1bTkhdYzNbY0hdW2NIXVtjSF1bY0hdW2NIXTMpQzI0W0NIMl1OKFtDSDJdNCljNVtjSF1bY0hdW2NIXVtjSF1bY0hdNQ==

> <s_epik_cmdline>
J2VwaWtfcHl0aG9uJywgJy1waHQnLCAnMC41JywgJy1waCcsICc3LjUnLCAnLXRuJywgJzgnLCAnLW1hJywgJzUwMCcsICctaW1hZScsICc8aW5maWxlLm1hZT4nLCAnLW9tYWUnLCAnPG91dGZpbGUubWFlPic=

> <r_lp_tautomer_probability>
1

> <r_epik_Ionization_Penalty>
0.00355265

> <r_epik_Ionization_Penalty_Charging>
0

> <r_epik_Ionization_Penalty_Neutral>
0.00355265

> <r_epik_State_Penalty>
-0

> <r_epik_Charging_Adjusted_Penalty>
0

> <i_epik_Tot_Q>
0

> <i_epik_Tot_abs_Q>
0

> <s_lp_Force_Field>
S-OPLS

> <r_lp_Energy>
32.3285

> <b_lp_Chiralities_Consistent>
1

> <s_lp_Variant>
ligprep_h3d.sdf:4686-1

> <ROCS_ShapeQuery>
_7L13

> <ROCS_TanimotoCombo>
0.740 

> <ROCS_ShapeTanimoto>
0.673 

> <ROCS_ColorTanimoto>
0.067 

> <ROCS_RefTversky>
0.761 

> <ROCS_RefColorTversky>
0.125 

> <ROCS_RefTverskyCombo>
0.886 

> <ROCS_FitTversky>
0.855 

> <ROCS_FitColorTversky>
0.125 

> <ROCS_FitTverskyCombo>
0.979 

> <ROCS_ColorScore>
-1.124

> <ROCS_Overlap>
1255.398

> <ROCS_Rank>
743                 

$$$$
ligprep_h3d.sdf:702_1816
  -OEChem-08212117123D

 60 64  0     0  0  0  0  0  0999 V2000
  -16.6631   -4.8372  -26.6926 C   0  0  0  0  0  0  0  0  0  0  0  0
  -23.1505   -4.2125  -28.7655 C   0  0  0  0  0  0  0  0  0  0  0  0
  -20.7519   -4.4647  -25.3812 C   0  0  0  0  0  0  0  0  0  0  0  0
  -17.1075   -6.1683  -26.5819 C   0  0  0  0  0  0  0  0  0  0  0  0
  -20.9932   -4.6070  -27.7825 C   0  0  0  0  0  0  0  0  0  0  0  0
  -21.2752   -4.7409  -30.1896 C   0  0  0  0  0  0  0  0  0  0  0  0
  -22.6216   -4.4326  -30.0398 C   0  0  0  0  0  0  0  0  0  0  0  0
  -20.4610   -4.8284  -29.0641 C   0  0  0  0  0  0  0  0  0  0  0  0
  -22.3593   -4.2937  -27.6229 C   0  0  0  0  0  0  0  0  0  0  0  0
  -20.1963   -4.6886  -26.6326 C   0  0  0  0  0  0  0  0  0  0  0  0
  -22.0978   -4.1643  -25.3250 C   0  0  0  0  0  0  0  0  0  0  0  0
  -17.8162   -4.0919  -26.7264 C   0  0  0  0  0  0  0  0  0  0  0  0
  -20.1804   -3.9002  -32.3513 C   0  0  0  0  0  0  0  0  0  0  0  0
  -20.7361   -6.2247  -32.0302 C   0  0  0  0  0  0  0  0  0  0  0  0
  -19.6891   -4.1536  -33.5687 C   0  0  0  0  0  0  0  0  0  0  0  0
  -20.7297   -4.9709  -31.5423 C   0  0  0  0  0  0  0  0  0  0  0  0
  -20.1913   -6.5243  -33.3910 C   0  0  0  0  0  0  0  0  0  0  0  0
  -22.7413   -3.9186  -24.0459 C   0  0  0  0  0  0  0  0  0  0  0  0
  -19.3759   -7.0943  -37.5485 C   0  0  0  0  0  0  0  0  0  0  0  0
  -19.0399   -8.0128  -36.4068 C   0  0  0  0  0  0  0  0  0  0  0  0
  -19.7902   -6.7357  -36.1483 C   0  0  0  0  0  0  0  0  0  0  0  0
  -23.5406   -4.3261  -31.2151 C   0  0  0  0  0  0  0  0  0  0  0  0
  -19.0164   -5.1654  -29.3052 C   0  0  0  0  0  0  0  0  0  0  0  0
  -18.0134   -2.6329  -26.8338 C   0  0  0  0  0  0  0  0  0  0  0  0
  -24.8813   -4.0469  -22.7439 C   0  0  0  0  0  0  0  0  0  0  0  0
  -19.1272   -5.6073  -35.4343 C   0  0  0  0  0  0  0  0  0  0  0  0
  -18.4391   -6.2662  -26.5475 N   0  0  0  0  0  0  0  0  0  0  0  0
  -22.9013   -4.0758  -26.4097 N   0  0  0  0  0  0  0  0  0  0  0  0
  -18.8414   -4.9870  -26.6370 N   0  0  0  0  0  0  0  0  0  0  0  0
  -19.6841   -5.4303  -34.0985 N   0  0  0  0  0  0  0  0  0  0  0  0
  -24.0973   -4.2525  -23.9405 N   0  0  0  0  0  0  0  0  0  0  0  0
  -20.2197   -7.6853  -33.7967 O   0  0  0  0  0  0  0  0  0  0  0  0
  -22.1042   -3.4136  -23.1036 O   0  0  0  0  0  0  0  0  0  0  0  0
  -15.6478   -4.4714  -26.7407 H   0  0  0  0  0  0  0  0  0  0  0  0
  -24.2079   -3.9716  -28.6631 H   0  0  0  0  0  0  0  0  0  0  0  0
  -20.1564   -4.5219  -24.4745 H   0  0  0  0  0  0  0  0  0  0  0  0
  -16.5164   -7.0711  -26.5247 H   0  0  0  0  0  0  0  0  0  0  0  0
  -20.1747   -2.8908  -31.9519 H   0  0  0  0  0  0  0  0  0  0  0  0
  -21.1331   -7.0667  -31.4691 H   0  0  0  0  0  0  0  0  0  0  0  0
  -19.2749   -3.3644  -34.1862 H   0  0  0  0  0  0  0  0  0  0  0  0
  -18.5642   -6.5429  -38.0067 H   0  0  0  0  0  0  0  0  0  0  0  0
  -20.1497   -7.4093  -38.2378 H   0  0  0  0  0  0  0  0  0  0  0  0
  -19.5885   -8.9435  -36.3302 H   0  0  0  0  0  0  0  0  0  0  0  0
  -18.0031   -8.0766  -36.1005 H   0  0  0  0  0  0  0  0  0  0  0  0
  -20.8421   -6.8118  -35.9006 H   0  0  0  0  0  0  0  0  0  0  0  0
  -23.5524   -3.2981  -31.5932 H   0  0  0  0  0  0  0  0  0  0  0  0
  -23.2247   -4.9947  -32.0242 H   0  0  0  0  0  0  0  0  0  0  0  0
  -24.5632   -4.6123  -30.9428 H   0  0  0  0  0  0  0  0  0  0  0  0
  -18.8802   -6.2496  -29.2830 H   0  0  0  0  0  0  0  0  0  0  0  0
  -18.6866   -4.7837  -30.2755 H   0  0  0  0  0  0  0  0  0  0  0  0
  -18.3800   -4.7097  -28.5412 H   0  0  0  0  0  0  0  0  0  0  0  0
  -18.0870   -2.3185  -27.8878 H   0  0  0  0  0  0  0  0  0  0  0  0
  -18.9315   -2.3005  -26.3200 H   0  0  0  0  0  0  0  0  0  0  0  0
  -17.1848   -2.0685  -26.3727 H   0  0  0  0  0  0  0  0  0  0  0  0
  -24.8811   -4.9677  -22.1421 H   0  0  0  0  0  0  0  0  0  0  0  0
  -24.4453   -3.2252  -22.1568 H   0  0  0  0  0  0  0  0  0  0  0  0
  -25.9143   -3.7909  -23.0220 H   0  0  0  0  0  0  0  0  0  0  0  0
  -18.0511   -5.8188  -35.3496 H   0  0  0  0  0  0  0  0  0  0  0  0
  -19.2748   -4.6818  -36.0103 H   0  0  0  0  0  0  0  0  0  0  0  0
  -24.5860   -4.6028  -24.7580 H   0  0  0  0  0  0  0  0  0  0  0  0
  1  4  1  0  0  0  0
  1 12  2  0  0  0  0
  2  7  2  0  0  0  0
  2  9  1  0  0  0  0
  3 10  1  0  0  0  0
  3 11  2  0  0  0  0
  4 27  2  0  0  0  0
  5  8  1  0  0  0  0
  5  9  1  0  0  0  0
  5 10  2  0  0  0  0
  6  7  1  0  0  0  0
  6  8  2  0  0  0  0
  6 16  1  0  0  0  0
  7 22  1  0  0  0  0
  8 23  1  0  0  0  0
  9 28  2  0  0  0  0
 10 29  1  0  0  0  0
 11 18  1  0  0  0  0
 11 28  1  0  0  0  0
 12 24  1  0  0  0  0
 12 29  1  0  0  0  0
 13 15  2  0  0  0  0
 13 16  1  0  0  0  0
 14 16  2  0  0  0  0
 14 17  1  0  0  0  0
 15 30  1  0  0  0  0
 17 30  1  0  0  0  0
 17 32  2  0  0  0  0
 18 31  1  0  0  0  0
 18 33  2  0  0  0  0
 19 20  1  0  0  0  0
 19 21  1  0  0  0  0
 20 21  1  0  0  0  0
 21 26  1  0  0  0  0
 25 31  1  0  0  0  0
 26 30  1  0  0  0  0
 27 29  1  0  0  0  0
  1 34  1  0  0  0  0
  2 35  1  0  0  0  0
  3 36  1  0  0  0  0
  4 37  1  0  0  0  0
 13 38  1  0  0  0  0
 14 39  1  0  0  0  0
 15 40  1  0  0  0  0
 19 41  1  0  0  0  0
 19 42  1  0  0  0  0
 20 43  1  0  0  0  0
 20 44  1  0  0  0  0
 21 45  1  0  0  0  0
 22 46  1  0  0  0  0
 22 47  1  0  0  0  0
 22 48  1  0  0  0  0
 23 49  1  0  0  0  0
 23 50  1  0  0  0  0
 23 51  1  0  0  0  0
 24 52  1  0  0  0  0
 24 53  1  0  0  0  0
 24 54  1  0  0  0  0
 25 55  1  0  0  0  0
 25 56  1  0  0  0  0
 25 57  1  0  0  0  0
 26 58  1  0  0  0  0
 26 59  1  0  0  0  0
 31 60  1  0  0  0  0
M  END
> <SMILES>
CNC(=O)c1cc(c2c(c(c(cc2n1)C)C1=CC(=O)N(CC2CC2)C=C1)C)-n1nccc1C

> <FORMATTED_ID>
H3D-004909

> <MOLFORMULA>
C26H27N5O2

> <Exact Mass>
441.22

> <XLogP>
3.66

> <TPSA_NOPS>
80.1

> <s_m_source_file>
ligprep_h3d.sdf

> <i_m_source_file_index>
702

> <i_lp_mmshare_version>
55123

> <i_f3d_flags>
0

> <s_epik_input>
W0NIM11jMVtjSF1bY0hdbm4xLWMyW2NIXWMoQyg9TylbTkhdW0NIM10pbmMoYzIzKVtjSF1jKFtDSDNdKWMoYzNbQ0gzXSktYzRbY0hdYyg9TyluKFtjSF1bY0hdNClbQ0gyXVtDSF01W0NIMl1bQ0gyXTU=

> <s_epik_cmdline>
J2VwaWtfcHl0aG9uJywgJy1waHQnLCAnMC41JywgJy1waCcsICc3LjUnLCAnLXRuJywgJzgnLCAnLW1hJywgJzUwMCcsICctaW1hZScsICc8aW5maWxlLm1hZT4nLCAnLW9tYWUnLCAnPG91dGZpbGUubWFlPic=

> <r_lp_tautomer_probability>
1

> <r_epik_Ionization_Penalty>
1.4183e-05

> <r_epik_Ionization_Penalty_Charging>
2.37781e-07

> <r_epik_Ionization_Penalty_Neutral>
1.39452e-05

> <r_epik_State_Penalty>
-0

> <r_epik_Charging_Adjusted_Penalty>
2.37781e-07

> <i_epik_Tot_Q>
0

> <i_epik_Tot_abs_Q>
0

> <s_lp_Force_Field>
S-OPLS

> <r_lp_Energy>
73.0718

> <b_lp_Chiralities_Consistent>
1

> <s_lp_Variant>
ligprep_h3d.sdf:702-1

> <ROCS_ShapeQuery>
_7L13

> <ROCS_TanimotoCombo>
0.774 

> <ROCS_ShapeTanimoto>
0.648 

> <ROCS_ColorTanimoto>
0.127 

> <ROCS_RefTversky>
0.761 

> <ROCS_RefColorTversky>
0.225 

> <ROCS_RefTverskyCombo>
0.986 

> <ROCS_FitTversky>
0.813 

> <ROCS_FitColorTversky>
0.225 

> <ROCS_FitTverskyCombo>
1.039 

> <ROCS_ColorScore>
-2.027

> <ROCS_Overlap>
1258.499

> <ROCS_Rank>
744                 

$$$$
ligprep_h3d.sdf:1008_1964
  -OEChem-08212117123D

 62 67  0     1  0  0  0  0  0999 V2000
  -20.8576   -4.4522  -29.6985 C   0  0  0  0  0  0  0  0  0  0  0  0
  -22.0521   -4.2879  -30.4038 C   0  0  0  0  0  0  0  0  0  0  0  0
  -20.8845   -4.4057  -28.2829 C   0  0  0  0  0  0  0  0  0  0  0  0
  -22.0887   -4.1916  -27.5615 C   0  0  0  0  0  0  0  0  0  0  0  0
  -23.2126   -4.0771  -29.6917 C   0  0  0  0  0  0  0  0  0  0  0  0
  -23.2824   -4.0199  -28.3000 C   0  0  0  0  0  0  0  0  0  0  0  0
  -22.4733   -4.2618  -31.7465 C   0  0  0  0  0  0  0  0  0  0  0  0
  -18.4968   -6.6176  -35.4110 C   0  0  0  0  0  0  0  0  0  0  0  0
  -19.8771   -6.2091  -25.7654 C   0  0  0  0  0  0  0  0  0  0  0  0
  -18.2983   -4.1788  -25.5175 C   0  0  0  0  0  0  0  0  0  0  0  0
  -17.4409   -6.5007  -25.3563 C   0  0  0  0  0  0  0  0  0  0  0  0
  -19.5513   -4.5541  -27.5799 C   0  0  0  0  0  0  0  0  0  0  0  0
  -18.8992   -5.3238  -36.0767 C   0  0  0  0  0  0  0  0  0  0  0  0
  -20.0945   -4.8664  -35.2463 C   0  0  0  0  0  0  0  0  0  0  0  0
  -21.8345   -4.8100  -23.3756 C   0  0  0  0  0  0  0  0  0  0  0  0
  -23.3102   -4.1313  -25.3825 C   0  0  0  0  0  0  0  0  0  0  0  0
  -23.1927   -4.9243  -24.0748 C   0  0  2  0  0  0  0  0  0  0  0  0
  -20.8984   -3.7538  -23.9638 C   0  0  1  0  0  0  0  0  0  0  0  0
  -20.7984   -3.8006  -25.5166 C   0  0  1  0  0  0  0  0  0  0  0  0
  -19.7942   -5.4129  -33.8571 C   0  0  1  0  0  0  0  0  0  0  0  0
  -19.6421   -4.7147  -26.0381 C   0  0  0  0  0  0  0  0  0  0  0  0
  -24.3334   -4.5418  -23.1275 C   0  0  0  0  0  0  0  0  0  0  0  0
  -21.2803   -2.3496  -23.4694 C   0  0  0  0  0  0  0  0  0  0  0  0
  -21.0408   -5.6616  -33.0288 C   0  0  0  0  0  0  0  0  0  0  0  0
  -23.7882   -4.0521  -31.8614 N   0  0  0  0  0  0  0  0  0  0  0  0
  -18.7358   -6.9615  -25.5380 N   0  0  0  0  0  0  0  0  0  0  0  0
  -17.3010   -5.1222  -25.3456 N   0  0  0  0  0  0  0  0  0  0  0  0
  -19.0674   -6.6239  -34.1422 N   0  0  0  0  0  0  0  0  0  0  0  0
  -22.0734   -4.1715  -26.1578 N   0  0  2  0  0  0  0  0  0  0  0  0
  -17.7690   -7.4679  -35.8995 O   0  0  0  0  0  0  0  0  0  0  0  0
  -20.9850   -6.7419  -25.8318 O   0  0  0  0  0  0  0  0  0  0  0  0
  -18.0906   -2.9787  -25.3299 O   0  0  0  0  0  0  0  0  0  0  0  0
  -16.4881   -7.2623  -25.1816 O   0  0  0  0  0  0  0  0  0  0  0  0
  -24.2536   -3.9333  -30.5571 O   0  0  0  0  0  0  0  0  0  0  0  0
  -21.7457   -4.4212  -32.8601 O   0  0  0  0  0  0  0  0  0  0  0  0
  -24.4836   -3.9019  -27.7209 F   0  0  0  0  0  0  0  0  0  0  0  0
  -19.9234   -4.6253  -30.2287 H   0  0  0  0  0  0  0  0  0  0  0  0
  -19.0082   -5.4197  -28.0135 H   0  0  0  0  0  0  0  0  0  0  0  0
  -18.9398   -3.6668  -27.8461 H   0  0  0  0  0  0  0  0  0  0  0  0
  -18.0830   -4.5979  -36.0477 H   0  0  0  0  0  0  0  0  0  0  0  0
  -19.1815   -5.5313  -37.1135 H   0  0  0  0  0  0  0  0  0  0  0  0
  -20.1182   -3.7716  -35.2161 H   0  0  0  0  0  0  0  0  0  0  0  0
  -21.0420   -5.2162  -35.6612 H   0  0  0  0  0  0  0  0  0  0  0  0
  -21.9950   -4.6023  -22.2928 H   0  0  0  0  0  0  0  0  0  0  0  0
  -21.3372   -5.8056  -23.3986 H   0  0  0  0  0  0  0  0  0  0  0  0
  -24.2100   -4.4707  -25.9211 H   0  0  0  0  0  0  0  0  0  0  0  0
  -23.5381   -3.0713  -25.1508 H   0  0  0  0  0  0  0  0  0  0  0  0
  -23.3621   -6.0097  -24.3266 H   0  0  0  0  0  0  0  0  0  0  0  0
  -19.8804   -3.9423  -23.5492 H   0  0  0  0  0  0  0  0  0  0  0  0
  -20.5605   -2.7841  -25.8725 H   0  0  0  0  0  0  0  0  0  0  0  0
  -19.1204   -4.7271  -33.3085 H   0  0  0  0  0  0  0  0  0  0  0  0
  -24.2366   -3.4972  -22.8378 H   0  0  0  0  0  0  0  0  0  0  0  0
  -24.2959   -5.1650  -22.2359 H   0  0  0  0  0  0  0  0  0  0  0  0
  -25.2901   -4.6875  -23.6257 H   0  0  0  0  0  0  0  0  0  0  0  0
  -22.2710   -2.0894  -23.8354 H   0  0  0  0  0  0  0  0  0  0  0  0
  -20.5593   -1.6231  -23.8377 H   0  0  0  0  0  0  0  0  0  0  0  0
  -21.2835   -2.3327  -22.3817 H   0  0  0  0  0  0  0  0  0  0  0  0
  -20.7744   -6.0526  -32.0423 H   0  0  0  0  0  0  0  0  0  0  0  0
  -21.6997   -6.3759  -33.5315 H   0  0  0  0  0  0  0  0  0  0  0  0
  -18.8635   -7.9712  -25.4999 H   0  0  0  0  0  0  0  0  0  0  0  0
  -16.3620   -4.7651  -25.1948 H   0  0  0  0  0  0  0  0  0  0  0  0
  -19.0026   -7.4075  -33.5047 H   0  0  0  0  0  0  0  0  0  0  0  0
  1  2  2  0  0  0  0
  1  3  1  0  0  0  0
  2  5  1  0  0  0  0
  2  7  1  0  0  0  0
  3  4  2  0  0  0  0
  3 12  1  0  0  0  0
  4  6  1  0  0  0  0
  4 29  1  0  0  0  0
  5  6  2  0  0  0  0
  5 34  1  0  0  0  0
  6 36  1  0  0  0  0
  7 25  2  0  0  0  0
  7 35  1  0  0  0  0
  8 13  1  0  0  0  0
  8 28  1  0  0  0  0
  8 30  2  0  0  0  0
  9 21  1  0  0  0  0
  9 26  1  0  0  0  0
  9 31  2  0  0  0  0
 10 21  1  0  0  0  0
 10 27  1  0  0  0  0
 10 32  2  0  0  0  0
 11 26  1  0  0  0  0
 11 27  1  0  0  0  0
 11 33  2  0  0  0  0
 12 21  1  0  0  0  0
 13 14  1  0  0  0  0
 14 20  1  0  0  0  0
 15 17  1  0  0  0  0
 15 18  1  0  0  0  0
 16 17  1  0  0  0  0
 16 29  1  0  0  0  0
 17 22  1  0  0  0  0
 18 19  1  0  0  0  0
 18 23  1  0  0  0  0
 19 21  1  0  0  0  0
 19 29  1  0  0  0  0
 20 24  1  0  0  0  0
 20 28  1  0  0  0  0
 24 35  1  0  0  0  0
 25 34  1  0  0  0  0
  1 37  1  0  0  0  0
 12 38  1  0  0  0  0
 12 39  1  0  0  0  0
 13 40  1  0  0  0  0
 13 41  1  0  0  0  0
 14 42  1  0  0  0  0
 14 43  1  0  0  0  0
 15 44  1  0  0  0  0
 15 45  1  0  0  0  0
 16 46  1  0  0  0  0
 16 47  1  0  0  0  0
 17 48  1  0  0  0  0
 18 49  1  0  0  0  0
 19 50  1  0  0  0  0
 20 51  1  0  0  0  0
 22 52  1  0  0  0  0
 22 53  1  0  0  0  0
 22 54  1  0  0  0  0
 23 55  1  0  0  0  0
 23 56  1  0  0  0  0
 23 57  1  0  0  0  0
 24 58  1  0  0  0  0
 24 59  1  0  0  0  0
 26 60  1  0  0  0  0
 27 61  1  0  0  0  0
 28 62  1  0  0  0  0
M  END
> <SMILES>
C[C@@H]1C[C@H](C)[C@@H]2N(C1)c1c(cc3c(noc3c1F)OC[C@@H]1CCC(=O)N1)CC21C(=O)NC(=O)NC1=O

> <FORMATTED_ID>
H3D-006167

> <MOLFORMULA>
C24H26FN5O6

> <Exact Mass>
499.19

> <XLogP>
1.25

> <TPSA_NOPS>
143.2

> <s_m_source_file>
ligprep_h3d.sdf

> <i_m_source_file_index>
1008

> <i_lp_mmshare_version>
55123

> <i_f3d_flags>
0

> <s_epik_input>
Tz1DMVtOSF1DKD1PKVtOSF1DKD1PKUMxMltDQEhdM04oW0NIMl1bQ0BIXShbQ0gzXSlbQ0gyXVtDQEBIXTNbQ0gzXSljNGMoW0NIMl0yKVtjSF1jNWMoYzRGKW9uYzVPW0NIMl1bQ0BASF02W0NIMl1bQ0gyXUMoPU8pW05IXTY=

> <s_epik_cmdline>
J2VwaWtfcHl0aG9uJywgJy1waHQnLCAnMC41JywgJy1waCcsICc3LjUnLCAnLXRuJywgJzgnLCAnLW1hJywgJzUwMCcsICctaW1hZScsICc8aW5maWxlLm1hZT4nLCAnLW9tYWUnLCAnPG91dGZpbGUubWFlPic=

> <r_lp_tautomer_probability>
1

> <r_epik_Ionization_Penalty>
0.222698

> <r_epik_Ionization_Penalty_Charging>
0

> <r_epik_Ionization_Penalty_Neutral>
0.222698

> <r_epik_State_Penalty>
0.213095

> <r_epik_Charging_Adjusted_Penalty>
0.213095

> <i_epik_Tot_Q>
0

> <i_epik_Tot_abs_Q>
0

> <s_lp_Force_Field>
S-OPLS

> <r_lp_Energy>
42.1021

> <b_lp_Chiralities_Consistent>
1

> <s_lp_Variant>
ligprep_h3d.sdf:1008-1

> <ROCS_ShapeQuery>
_7L13

> <ROCS_TanimotoCombo>
0.658 

> <ROCS_ShapeTanimoto>
0.605 

> <ROCS_ColorTanimoto>
0.053 

> <ROCS_RefTversky>
0.761 

> <ROCS_RefColorTversky>
0.129 

> <ROCS_RefTverskyCombo>
0.890 

> <ROCS_FitTversky>
0.748 

> <ROCS_FitColorTversky>
0.081 

> <ROCS_FitTverskyCombo>
0.830 

> <ROCS_ColorScore>
-1.201

> <ROCS_Overlap>
1264.074

> <ROCS_Rank>
745                 

$$$$
ligprep_h3d.sdf:4948_1148
  -OEChem-08212117123D

 64 68  0     1  0  0  0  0  0999 V2000
  -21.8125   -4.3689  -34.5841 C   0  0  0  0  0  0  0  0  0  0  0  0
  -24.8480   -4.2247  -25.2709 C   0  0  0  0  0  0  0  0  0  0  0  0
  -23.4732   -5.2378  -23.5620 C   0  0  0  0  0  0  0  0  0  0  0  0
  -21.0564   -4.7175  -35.7032 C   0  0  0  0  0  0  0  0  0  0  0  0
  -25.8171   -3.9249  -24.3136 C   0  0  0  0  0  0  0  0  0  0  0  0
  -24.4422   -4.9379  -22.6046 C   0  0  0  0  0  0  0  0  0  0  0  0
  -20.7918   -6.1670  -33.3343 C   0  0  0  0  0  0  0  0  0  0  0  0
  -16.6647   -5.2676  -26.1510 C   0  0  0  0  0  0  0  0  0  0  0  0
  -17.9635   -4.1914  -24.4213 C   0  0  0  0  0  0  0  0  0  0  0  0
  -15.7482   -5.0205  -23.9292 C   0  0  0  0  0  0  0  0  0  0  0  0
  -20.0357   -6.5157  -34.4534 C   0  0  0  0  0  0  0  0  0  0  0  0
  -21.6801   -5.0936  -33.3996 C   0  0  0  0  0  0  0  0  0  0  0  0
  -17.8361   -4.6326  -25.7384 C   0  0  0  0  0  0  0  0  0  0  0  0
  -23.6761   -4.8813  -24.8952 C   0  0  0  0  0  0  0  0  0  0  0  0
  -20.1680   -5.7909  -35.6378 C   0  0  0  0  0  0  0  0  0  0  0  0
  -25.6142   -4.2814  -22.9804 C   0  0  0  0  0  0  0  0  0  0  0  0
  -15.6208   -5.4617  -25.2463 C   0  0  0  0  0  0  0  0  0  0  0  0
  -16.9196   -4.3854  -23.5167 C   0  0  0  0  0  0  0  0  0  0  0  0
  -19.1238   -7.6513  -34.3185 C   0  0  0  0  0  0  0  0  0  0  0  0
  -21.7871   -3.7108  -31.3251 C   0  0  0  0  0  0  0  0  0  0  0  0
  -21.8049   -5.4420  -29.4704 C   0  0  0  0  0  0  0  0  0  0  0  0
  -19.0195   -4.7790  -28.0221 C   0  0  0  0  0  0  0  0  0  0  0  0
  -20.0158   -3.5730  -26.6135 C   0  0  0  0  0  0  0  0  0  0  0  0
  -20.8056   -3.2582  -29.0958 C   0  0  0  0  0  0  0  0  0  0  0  0
  -21.5493   -5.2999  -27.9709 C   0  0  1  0  0  0  0  0  0  0  0  0
  -20.4653   -4.2095  -27.9521 C   0  0  0  0  0  0  0  0  0  0  0  0
  -22.4936   -4.7181  -32.1969 C   0  0  0  0  0  0  0  0  0  0  0  0
  -22.8155   -4.8618  -27.2371 C   0  0  0  0  0  0  0  0  0  0  0  0
  -18.8854   -4.4368  -26.6475 N   0  0  0  0  0  0  0  0  0  0  0  0
  -21.4958   -4.1306  -30.0370 N   0  0  0  0  0  0  0  0  0  0  0  0
  -19.6205   -8.9102  -34.6268 N   0  0  0  0  0  0  0  0  0  0  0  0
  -22.7056   -5.1816  -25.8539 N   0  0  0  0  0  0  0  0  0  0  0  0
  -19.4834   -6.0932  -36.6803 O   0  5  0  0  0  0  0  0  0  0  0  0
  -17.9585   -7.4934  -33.9274 O   0  0  0  0  0  0  0  0  0  0  0  0
  -21.5089   -2.5940  -31.7653 O   0  0  0  0  0  0  0  0  0  0  0  0
  -26.5448   -3.9934  -22.0610 F   0  0  0  0  0  0  0  0  0  0  0  0
  -14.4954   -6.0699  -25.6434 F   0  0  0  0  0  0  0  0  0  0  0  0
  -17.0412   -3.9600  -22.2524 F   0  0  0  0  0  0  0  0  0  0  0  0
  -22.5019   -3.5307  -34.6427 H   0  0  0  0  0  0  0  0  0  0  0  0
  -25.0163   -3.9420  -26.3070 H   0  0  0  0  0  0  0  0  0  0  0  0
  -22.5637   -5.7499  -23.2581 H   0  0  0  0  0  0  0  0  0  0  0  0
  -21.1797   -4.1331  -36.6138 H   0  0  0  0  0  0  0  0  0  0  0  0
  -26.7296   -3.4135  -24.6057 H   0  0  0  0  0  0  0  0  0  0  0  0
  -24.2849   -5.2155  -21.5665 H   0  0  0  0  0  0  0  0  0  0  0  0
  -20.6919   -6.7297  -32.4084 H   0  0  0  0  0  0  0  0  0  0  0  0
  -16.5546   -5.6145  -27.1750 H   0  0  0  0  0  0  0  0  0  0  0  0
  -18.8715   -3.6945  -24.0896 H   0  0  0  0  0  0  0  0  0  0  0  0
  -14.9345   -5.1705  -23.2259 H   0  0  0  0  0  0  0  0  0  0  0  0
  -21.1036   -6.1529  -29.9208 H   0  0  0  0  0  0  0  0  0  0  0  0
  -22.8221   -5.7507  -29.7266 H   0  0  0  0  0  0  0  0  0  0  0  0
  -18.9413   -5.8598  -28.1899 H   0  0  0  0  0  0  0  0  0  0  0  0
  -18.3099   -4.2537  -28.6684 H   0  0  0  0  0  0  0  0  0  0  0  0
  -19.7487   -2.5128  -26.6444 H   0  0  0  0  0  0  0  0  0  0  0  0
  -20.6645   -3.7737  -25.7533 H   0  0  0  0  0  0  0  0  0  0  0  0
  -21.5095   -2.4771  -28.7834 H   0  0  0  0  0  0  0  0  0  0  0  0
  -19.9335   -2.7885  -29.5642 H   0  0  0  0  0  0  0  0  0  0  0  0
  -21.1986   -6.2445  -27.5428 H   0  0  0  0  0  0  0  0  0  0  0  0
  -23.4520   -4.2979  -32.5068 H   0  0  0  0  0  0  0  0  0  0  0  0
  -22.7202   -5.5977  -31.5925 H   0  0  0  0  0  0  0  0  0  0  0  0
  -22.9128   -3.7865  -27.3761 H   0  0  0  0  0  0  0  0  0  0  0  0
  -23.6505   -5.3941  -27.6892 H   0  0  0  0  0  0  0  0  0  0  0  0
  -20.5834   -9.0051  -34.9310 H   0  0  0  0  0  0  0  0  0  0  0  0
  -19.0371   -9.7373  -34.5530 H   0  0  0  0  0  0  0  0  0  0  0  0
  -21.8675   -5.6650  -25.5204 H   0  0  0  0  0  0  0  0  0  0  0  0
  1  4  1  0  0  0  0
  1 12  2  0  0  0  0
  2  5  1  0  0  0  0
  2 14  2  0  0  0  0
  3  6  2  0  0  0  0
  3 14  1  0  0  0  0
  4 15  2  0  0  0  0
  5 16  2  0  0  0  0
  6 16  1  0  0  0  0
  7 11  2  0  0  0  0
  7 12  1  0  0  0  0
  8 13  2  0  0  0  0
  8 17  1  0  0  0  0
  9 13  1  0  0  0  0
  9 18  2  0  0  0  0
 10 17  2  0  0  0  0
 10 18  1  0  0  0  0
 11 15  1  0  0  0  0
 11 19  1  0  0  0  0
 12 27  1  0  0  0  0
 13 29  1  0  0  0  0
 14 32  1  0  0  0  0
 15 33  1  0  0  0  0
 16 36  1  0  0  0  0
 17 37  1  0  0  0  0
 18 38  1  0  0  0  0
 19 31  1  0  0  0  0
 19 34  2  0  0  0  0
 20 27  1  0  0  0  0
 20 30  1  0  0  0  0
 20 35  2  0  0  0  0
 21 25  1  0  0  0  0
 21 30  1  0  0  0  0
 22 26  1  0  0  0  0
 22 29  1  0  0  0  0
 23 26  1  0  0  0  0
 23 29  1  0  0  0  0
 24 26  1  0  0  0  0
 24 30  1  0  0  0  0
 25 26  1  0  0  0  0
 25 28  1  0  0  0  0
 28 32  1  0  0  0  0
  1 39  1  0  0  0  0
  2 40  1  0  0  0  0
  3 41  1  0  0  0  0
  4 42  1  0  0  0  0
  5 43  1  0  0  0  0
  6 44  1  0  0  0  0
  7 45  1  0  0  0  0
  8 46  1  0  0  0  0
  9 47  1  0  0  0  0
 10 48  1  0  0  0  0
 21 49  1  0  0  0  0
 21 50  1  0  0  0  0
 22 51  1  0  0  0  0
 22 52  1  0  0  0  0
 23 53  1  0  0  0  0
 23 54  1  0  0  0  0
 24 55  1  0  0  0  0
 24 56  1  0  0  0  0
 25 57  1  0  0  0  0
 27 58  1  0  0  0  0
 27 59  1  0  0  0  0
 28 60  1  0  0  0  0
 28 61  1  0  0  0  0
 31 62  1  0  0  0  0
 31 63  1  0  0  0  0
 32 64  1  0  0  0  0
M  CHG  1  33  -1
M  END
> <SMILES>
NC(=O)c1cc(ccc1O)CC(=O)N1CC(CNc2ccc(cc2)F)C2(C1)CN(C2)c1cc(cc(c1)F)F

> <FORMATTED_ID>
H3D-008481

> <MOLFORMULA>
C28H27F3N4O3

> <Exact Mass>
524.2

> <XLogP>
3.19

> <TPSA_NOPS>
98.9

> <s_m_source_file>
ligprep_h3d.sdf

> <i_m_source_file_index>
4948

> <i_lp_mmshare_version>
55123

> <i_f3d_flags>
0

> <s_epik_input>
W05IMl1DKD1PKWMxW2NIXWMoW2NIXVtjSF1jMVtPSF0pW0NIMl1DKD1PKU4oW0NIMl0yKVtDSDJdW0NASF0oW0NIMl1bTkhdYzNbY0hdW2NIXWMoRilbY0hdW2NIXTMpQzI0W0NIMl1OKFtDSDJdNCljNVtjSF1jKEYpW2NIXWMoRilbY0hdNQ==

> <s_epik_cmdline>
J2VwaWtfcHl0aG9uJywgJy1waHQnLCAnMC41JywgJy1waCcsICc3LjUnLCAnLXRuJywgJzgnLCAnLW1hJywgJzUwMCcsICctaW1hZScsICc8aW5maWxlLm1hZT4nLCAnLW9tYWUnLCAnPG91dGZpbGUubWFlPic=

> <r_epik_Ionization_Penalty>
0.0156204

> <r_epik_Ionization_Penalty_Charging>
0.013183

> <r_epik_Ionization_Penalty_Neutral>
0.00243736

> <r_epik_State_Penalty>
0.0102461

> <r_epik_Charging_Adjusted_Penalty>
0.0234292

> <i_epik_Tot_Q>
-1

> <i_epik_Tot_abs_Q>
1

> <s_lp_Force_Field>
S-OPLS

> <r_lp_Energy>
32.8224

> <b_lp_Chiralities_Consistent>
1

> <s_lp_Variant>
ligprep_h3d.sdf:4948-1

> <ROCS_ShapeQuery>
_7L13

> <ROCS_TanimotoCombo>
0.647 

> <ROCS_ShapeTanimoto>
0.592 

> <ROCS_ColorTanimoto>
0.055 

> <ROCS_RefTversky>
0.760 

> <ROCS_RefColorTversky>
0.115 

> <ROCS_RefTverskyCombo>
0.875 

> <ROCS_FitTversky>
0.728 

> <ROCS_FitColorTversky>
0.096 

> <ROCS_FitTverskyCombo>
0.824 

> <ROCS_ColorScore>
-1.044

> <ROCS_Overlap>
1265.944

> <ROCS_Rank>
746                 

$$$$
ligprep_h3d.sdf:832_133
  -OEChem-08212117123D

 64 69  0     1  0  0  0  0  0999 V2000
  -20.8978   -5.0658  -29.5186 C   0  0  0  0  0  0  0  0  0  0  0  0
  -21.7280   -4.3595  -30.3912 C   0  0  0  0  0  0  0  0  0  0  0  0
  -21.0183   -4.8355  -28.1264 C   0  0  0  0  0  0  0  0  0  0  0  0
  -21.9758   -3.9473  -27.5828 C   0  0  0  0  0  0  0  0  0  0  0  0
  -22.6345   -3.4701  -29.8577 C   0  0  0  0  0  0  0  0  0  0  0  0
  -22.7903   -3.2313  -28.4920 C   0  0  0  0  0  0  0  0  0  0  0  0
  -21.9401   -4.2627  -31.7790 C   0  0  0  0  0  0  0  0  0  0  0  0
  -18.9165   -3.6340  -26.2220 C   0  0  0  0  0  0  0  0  0  0  0  0
  -19.0988   -5.9203  -25.0447 C   0  0  0  0  0  0  0  0  0  0  0  0
  -16.8996   -5.0085  -25.7591 C   0  0  0  0  0  0  0  0  0  0  0  0
  -20.0045   -3.3619  -34.0069 C   0  0  0  0  0  0  0  0  0  0  0  0
  -20.0931   -5.5990  -27.2168 C   0  0  0  0  0  0  0  0  0  0  0  0
  -19.5556   -5.7778  -34.1935 C   0  0  0  0  0  0  0  0  0  0  0  0
  -21.6303   -6.3325  -33.1391 C   0  0  0  0  0  0  0  0  0  0  0  0
  -23.1017   -2.8793  -25.6399 C   0  0  0  0  0  0  0  0  0  0  0  0
  -19.9043   -4.6376  -33.2333 C   0  0  2  0  0  0  0  0  0  0  0  0
  -21.1563   -4.4348  -25.2430 C   0  0  2  0  0  0  0  0  0  0  0  0
  -20.3409   -6.9634  -33.6546 C   0  0  1  0  0  0  0  0  0  0  0  0
  -23.4422   -3.2182  -24.1859 C   0  0  1  0  0  0  0  0  0  0  0  0
  -21.0448   -3.4940  -24.0081 C   0  0  2  0  0  0  0  0  0  0  0  0
  -19.8013   -4.8479  -25.8937 C   0  0  0  0  0  0  0  0  0  0  0  0
  -24.3512   -4.4397  -24.0640 C   0  0  0  0  0  0  0  0  0  0  0  0
  -20.0543   -3.9160  -22.9294 C   0  0  0  0  0  0  0  0  0  0  0  0
  -21.1723   -2.3268  -35.7814 C   0  0  0  0  0  0  0  0  0  0  0  0
  -22.8991   -3.3835  -32.0851 N   0  0  0  0  0  0  0  0  0  0  0  0
  -17.5543   -3.8883  -26.2505 N   0  0  0  0  0  0  0  0  0  0  0  0
  -17.7173   -5.9524  -25.1543 N   0  0  0  0  0  0  0  0  0  0  0  0
  -22.0888   -3.7831  -26.2002 N   0  0  3  0  0  0  0  0  0  0  0  0
  -21.2119   -5.0090  -32.6847 N   0  0  0  0  0  0  0  0  0  0  0  0
  -19.3697   -2.5251  -26.5049 O   0  0  0  0  0  0  0  0  0  0  0  0
  -19.7139   -6.7554  -24.3803 O   0  0  0  0  0  0  0  0  0  0  0  0
  -15.6756   -5.1369  -25.8189 O   0  0  0  0  0  0  0  0  0  0  0  0
  -19.3136   -2.3749  -33.7932 O   0  0  0  0  0  0  0  0  0  0  0  0
  -23.3358   -2.8811  -30.8648 O   0  0  0  0  0  0  0  0  0  0  0  0
  -22.3107   -3.4086  -23.3420 O   0  0  0  0  0  0  0  0  0  0  0  0
  -20.5905   -7.9043  -34.6800 O   0  0  0  0  0  0  0  0  0  0  0  0
  -20.9693   -3.4829  -34.9627 O   0  0  0  0  0  0  0  0  0  0  0  0
  -23.6332   -2.2607  -28.1201 F   0  0  0  0  0  0  0  0  0  0  0  0
  -20.1664   -5.7724  -29.9008 H   0  0  0  0  0  0  0  0  0  0  0  0
  -20.5590   -6.5738  -27.0170 H   0  0  0  0  0  0  0  0  0  0  0  0
  -19.1501   -5.8035  -27.7421 H   0  0  0  0  0  0  0  0  0  0  0  0
  -19.8140   -5.5450  -35.2309 H   0  0  0  0  0  0  0  0  0  0  0  0
  -18.4820   -5.9882  -34.1278 H   0  0  0  0  0  0  0  0  0  0  0  0
  -22.4001   -6.2582  -33.9116 H   0  0  0  0  0  0  0  0  0  0  0  0
  -22.0148   -6.9028  -32.2877 H   0  0  0  0  0  0  0  0  0  0  0  0
  -24.0126   -2.9780  -26.2659 H   0  0  0  0  0  0  0  0  0  0  0  0
  -22.8577   -1.8066  -25.6803 H   0  0  0  0  0  0  0  0  0  0  0  0
  -19.1325   -4.5274  -32.4752 H   0  0  0  0  0  0  0  0  0  0  0  0
  -21.6756   -5.3484  -24.9142 H   0  0  0  0  0  0  0  0  0  0  0  0
  -19.7831   -7.4757  -32.8488 H   0  0  0  0  0  0  0  0  0  0  0  0
  -24.0425   -2.3477  -23.7464 H   0  0  0  0  0  0  0  0  0  0  0  0
  -20.7656   -2.4706  -24.3193 H   0  0  0  0  0  0  0  0  0  0  0  0
  -23.8486   -5.3203  -24.4645 H   0  0  0  0  0  0  0  0  0  0  0  0
  -25.2737   -4.2753  -24.6211 H   0  0  0  0  0  0  0  0  0  0  0  0
  -24.5973   -4.6186  -23.0171 H   0  0  0  0  0  0  0  0  0  0  0  0
  -20.2854   -4.9240  -22.5851 H   0  0  0  0  0  0  0  0  0  0  0  0
  -20.1110   -3.2314  -22.0831 H   0  0  0  0  0  0  0  0  0  0  0  0
  -19.0402   -3.9021  -23.3287 H   0  0  0  0  0  0  0  0  0  0  0  0
  -21.9617   -2.5290  -36.5094 H   0  0  0  0  0  0  0  0  0  0  0  0
  -20.2417   -2.0765  -36.2971 H   0  0  0  0  0  0  0  0  0  0  0  0
  -21.4712   -1.4895  -35.1464 H   0  0  0  0  0  0  0  0  0  0  0  0
  -16.9709   -3.1758  -26.6783 H   0  0  0  0  0  0  0  0  0  0  0  0
  -17.2464   -6.7270  -24.6956 H   0  0  0  0  0  0  0  0  0  0  0  0
  -19.7249   -8.1956  -35.0085 H   0  0  0  0  0  0  0  0  0  0  0  0
  1  2  2  0  0  0  0
  1  3  1  0  0  0  0
  2  5  1  0  0  0  0
  2  7  1  0  0  0  0
  3  4  2  0  0  0  0
  3 12  1  0  0  0  0
  4  6  1  0  0  0  0
  4 28  1  0  0  0  0
  5  6  2  0  0  0  0
  5 34  1  0  0  0  0
  6 38  1  0  0  0  0
  7 25  2  0  0  0  0
  7 29  1  0  0  0  0
  8 21  1  0  0  0  0
  8 26  1  0  0  0  0
  8 30  2  0  0  0  0
  9 21  1  0  0  0  0
  9 27  1  0  0  0  0
  9 31  2  0  0  0  0
 10 26  1  0  0  0  0
 10 27  1  0  0  0  0
 10 32  2  0  0  0  0
 11 16  1  0  0  0  0
 11 33  2  0  0  0  0
 11 37  1  0  0  0  0
 12 21  1  0  0  0  0
 13 16  1  0  0  0  0
 13 18  1  0  0  0  0
 14 18  1  0  0  0  0
 14 29  1  0  0  0  0
 15 19  1  0  0  0  0
 15 28  1  0  0  0  0
 16 29  1  0  0  0  0
 17 20  1  0  0  0  0
 17 21  1  0  0  0  0
 17 28  1  0  0  0  0
 18 36  1  0  0  0  0
 19 22  1  0  0  0  0
 19 35  1  0  0  0  0
 20 23  1  0  0  0  0
 20 35  1  0  0  0  0
 24 37  1  0  0  0  0
 25 34  1  0  0  0  0
  1 39  1  0  0  0  0
 12 40  1  0  0  0  0
 12 41  1  0  0  0  0
 13 42  1  0  0  0  0
 13 43  1  0  0  0  0
 14 44  1  0  0  0  0
 14 45  1  0  0  0  0
 15 46  1  0  0  0  0
 15 47  1  0  0  0  0
 16 48  1  0  0  0  0
 17 49  1  0  0  0  0
 18 50  1  0  0  0  0
 19 51  1  0  0  0  0
 20 52  1  0  0  0  0
 22 53  1  0  0  0  0
 22 54  1  0  0  0  0
 22 55  1  0  0  0  0
 23 56  1  0  0  0  0
 23 57  1  0  0  0  0
 23 58  1  0  0  0  0
 24 59  1  0  0  0  0
 24 60  1  0  0  0  0
 24 61  1  0  0  0  0
 26 62  1  0  0  0  0
 27 63  1  0  0  0  0
 36 64  1  0  0  0  0
M  END
> <SMILES>
COC(=O)[C@@H]1C[C@H](O)CN1c1noc2c(c3c(cc12)CC1([C@H]2[C@H](C)O[C@H](C)CN23)C(=O)NC(=O)NC1=O)F

> <FORMATTED_ID>
H3D-005542

> <MOLFORMULA>
C24H26FN5O8

> <Exact Mass>
531.18

> <XLogP>
-0.34

> <TPSA_NOPS>
163.8

> <s_m_source_file>
ligprep_h3d.sdf

> <i_m_source_file_index>
832

> <i_lp_mmshare_version>
55123

> <i_f3d_flags>
0

> <s_epik_input>
W0NIM11PQyg9TylbQ0BASF0xW0NIMl1bQ0BIXShbT0hdKVtDSDJdTjFjMm5vYyhjM0YpYzJbY0hdYyhbQ0gyXTQpYzNOKFtDSDJdW0NAQEhdKFtDSDNdKU9bQ0BIXTVbQ0gzXSlbQ0BIXTVDNDZDKD1PKVtOSF1DKD1PKVtOSF1DNj1P

> <s_epik_cmdline>
J2VwaWtfcHl0aG9uJywgJy1waHQnLCAnMC41JywgJy1waCcsICc3LjUnLCAnLXRuJywgJzgnLCAnLW1hJywgJzUwMCcsICctaW1hZScsICc8aW5maWxlLm1hZT4nLCAnLW9tYWUnLCAnPG91dGZpbGUubWFlPic=

> <r_lp_tautomer_probability>
1

> <r_epik_Ionization_Penalty>
0.369125

> <r_epik_Ionization_Penalty_Charging>
0

> <r_epik_Ionization_Penalty_Neutral>
0.369125

> <r_epik_State_Penalty>
0.366447

> <r_epik_Charging_Adjusted_Penalty>
0.366447

> <i_epik_Tot_Q>
0

> <i_epik_Tot_abs_Q>
0

> <s_epik_Chemistry_Notes>
This compound has an ester and may undergo hydrolysis at high or low pH.

> <s_lp_Force_Field>
S-OPLS

> <r_lp_Energy>
47.4752

> <b_lp_Chiralities_Consistent>
1

> <s_lp_Variant>
ligprep_h3d.sdf:832-1

> <ROCS_ShapeQuery>
_7L13

> <ROCS_TanimotoCombo>
0.702 

> <ROCS_ShapeTanimoto>
0.578 

> <ROCS_ColorTanimoto>
0.124 

> <ROCS_RefTversky>
0.760 

> <ROCS_RefColorTversky>
0.294 

> <ROCS_RefTverskyCombo>
1.055 

> <ROCS_FitTversky>
0.707 

> <ROCS_FitColorTversky>
0.175 

> <ROCS_FitTverskyCombo>
0.883 

> <ROCS_ColorScore>
-2.753

> <ROCS_Overlap>
1268.086

> <ROCS_Rank>
747                 

$$$$
ligprep_h3d.sdf:942_1831
  -OEChem-08212117123D

 60 63  0     0  0  0  0  0  0999 V2000
  -16.9637   -6.2972  -26.4361 C   0  0  0  0  0  0  0  0  0  0  0  0
  -22.9923   -4.1580  -28.8559 C   0  0  0  0  0  0  0  0  0  0  0  0
  -20.7460   -4.5219  -25.3785 C   0  0  0  0  0  0  0  0  0  0  0  0
  -16.7316   -4.9128  -26.5421 C   0  0  0  0  0  0  0  0  0  0  0  0
  -20.8992   -4.6606  -27.7873 C   0  0  0  0  0  0  0  0  0  0  0  0
  -21.0923   -4.7889  -30.2035 C   0  0  0  0  0  0  0  0  0  0  0  0
  -22.4256   -4.4102  -30.1077 C   0  0  0  0  0  0  0  0  0  0  0  0
  -20.3290   -4.9143  -29.0463 C   0  0  0  0  0  0  0  0  0  0  0  0
  -22.2523   -4.2759  -27.6826 C   0  0  0  0  0  0  0  0  0  0  0  0
  -20.1538   -4.7793  -26.6065 C   0  0  0  0  0  0  0  0  0  0  0  0
  -22.0755   -4.1515  -25.3764 C   0  0  0  0  0  0  0  0  0  0  0  0
  -18.3318   -6.4179  -26.4480 C   0  0  0  0  0  0  0  0  0  0  0  0
  -19.8704   -4.0146  -32.3214 C   0  0  0  0  0  0  0  0  0  0  0  0
  -20.5591   -6.3057  -32.0186 C   0  0  0  0  0  0  0  0  0  0  0  0
  -19.3453   -4.2980  -33.5179 C   0  0  0  0  0  0  0  0  0  0  0  0
  -20.5065   -5.0521  -31.5330 C   0  0  0  0  0  0  0  0  0  0  0  0
  -19.9773   -6.6385  -33.3561 C   0  0  0  0  0  0  0  0  0  0  0  0
  -22.7554   -3.8678  -24.1243 C   0  0  0  0  0  0  0  0  0  0  0  0
  -23.2906   -4.2604  -31.3188 C   0  0  0  0  0  0  0  0  0  0  0  0
  -18.8955   -5.3271  -29.2293 C   0  0  0  0  0  0  0  0  0  0  0  0
  -19.1904   -7.6159  -26.3668 C   0  0  0  0  0  0  0  0  0  0  0  0
  -18.7867   -5.7860  -35.3572 C   0  0  0  0  0  0  0  0  0  0  0  0
  -24.9490   -3.8793  -22.9081 C   0  0  0  0  0  0  0  0  0  0  0  0
  -25.5770   -5.1786  -22.4379 C   0  0  0  0  0  0  0  0  0  0  0  0
  -19.8599   -5.9202  -36.4172 C   0  0  0  0  0  0  0  0  0  0  0  0
  -17.8618   -4.2047  -26.6161 N   0  0  0  0  0  0  0  0  0  0  0  0
  -22.8297   -4.0254  -26.4923 N   0  0  0  0  0  0  0  0  0  0  0  0
  -18.8172   -5.1479  -26.5565 N   0  0  0  0  0  0  0  0  0  0  0  0
  -19.3859   -5.5752  -34.0449 N   0  0  0  0  0  0  0  0  0  0  0  0
  -24.1301   -4.1301  -24.0723 N   0  0  0  0  0  0  0  0  0  0  0  0
  -20.0502   -7.7980  -33.7607 O   0  0  0  0  0  0  0  0  0  0  0  0
  -22.1305   -3.3931  -23.1583 O   0  0  0  0  0  0  0  0  0  0  0  0
  -24.5518   -6.1173  -22.1384 O   0  0  0  0  0  0  0  0  0  0  0  0
  -20.6301   -7.0070  -36.1606 F   0  0  0  0  0  0  0  0  0  0  0  0
  -19.2709   -6.1411  -37.6203 F   0  0  0  0  0  0  0  0  0  0  0  0
  -16.2387   -7.0945  -26.3620 H   0  0  0  0  0  0  0  0  0  0  0  0
  -24.0389   -3.8619  -28.7960 H   0  0  0  0  0  0  0  0  0  0  0  0
  -20.1906   -4.6066  -24.4488 H   0  0  0  0  0  0  0  0  0  0  0  0
  -15.7861   -4.3905  -26.5687 H   0  0  0  0  0  0  0  0  0  0  0  0
  -19.8278   -3.0054  -31.9239 H   0  0  0  0  0  0  0  0  0  0  0  0
  -21.0214   -7.1237  -31.4722 H   0  0  0  0  0  0  0  0  0  0  0  0
  -18.8662   -3.5338  -34.1198 H   0  0  0  0  0  0  0  0  0  0  0  0
  -23.2337   -3.2347  -31.6989 H   0  0  0  0  0  0  0  0  0  0  0  0
  -22.9783   -4.9476  -32.1136 H   0  0  0  0  0  0  0  0  0  0  0  0
  -24.3368   -4.4919  -31.0869 H   0  0  0  0  0  0  0  0  0  0  0  0
  -18.8172   -6.4169  -29.1999 H   0  0  0  0  0  0  0  0  0  0  0  0
  -18.5082   -4.9668  -30.1864 H   0  0  0  0  0  0  0  0  0  0  0  0
  -18.2670   -4.9023  -28.4414 H   0  0  0  0  0  0  0  0  0  0  0  0
  -19.4375   -7.8573  -25.3200 H   0  0  0  0  0  0  0  0  0  0  0  0
  -20.1398   -7.4824  -26.9131 H   0  0  0  0  0  0  0  0  0  0  0  0
  -18.7061   -8.5028  -26.8100 H   0  0  0  0  0  0  0  0  0  0  0  0
  -18.1798   -6.6969  -35.3327 H   0  0  0  0  0  0  0  0  0  0  0  0
  -18.1195   -4.9539  -35.6043 H   0  0  0  0  0  0  0  0  0  0  0  0
  -25.7136   -3.1441  -23.1785 H   0  0  0  0  0  0  0  0  0  0  0  0
  -24.3098   -3.4600  -22.1252 H   0  0  0  0  0  0  0  0  0  0  0  0
  -26.2012   -5.6017  -23.2311 H   0  0  0  0  0  0  0  0  0  0  0  0
  -26.1898   -5.0289  -21.5430 H   0  0  0  0  0  0  0  0  0  0  0  0
  -20.5010   -5.0375  -36.4985 H   0  0  0  0  0  0  0  0  0  0  0  0
  -24.6037   -4.4575  -24.9079 H   0  0  0  0  0  0  0  0  0  0  0  0
  -24.9940   -6.9294  -21.8431 H   0  0  0  0  0  0  0  0  0  0  0  0
  1  4  1  0  0  0  0
  1 12  2  0  0  0  0
  2  7  2  0  0  0  0
  2  9  1  0  0  0  0
  3 10  1  0  0  0  0
  3 11  2  0  0  0  0
  4 26  2  0  0  0  0
  5  8  1  0  0  0  0
  5  9  1  0  0  0  0
  5 10  2  0  0  0  0
  6  7  1  0  0  0  0
  6  8  2  0  0  0  0
  6 16  1  0  0  0  0
  7 19  1  0  0  0  0
  8 20  1  0  0  0  0
  9 27  2  0  0  0  0
 10 28  1  0  0  0  0
 11 18  1  0  0  0  0
 11 27  1  0  0  0  0
 12 21  1  0  0  0  0
 12 28  1  0  0  0  0
 13 15  2  0  0  0  0
 13 16  1  0  0  0  0
 14 16  2  0  0  0  0
 14 17  1  0  0  0  0
 15 29  1  0  0  0  0
 17 29  1  0  0  0  0
 17 31  2  0  0  0  0
 18 30  1  0  0  0  0
 18 32  2  0  0  0  0
 22 25  1  0  0  0  0
 22 29  1  0  0  0  0
 23 24  1  0  0  0  0
 23 30  1  0  0  0  0
 24 33  1  0  0  0  0
 25 34  1  0  0  0  0
 25 35  1  0  0  0  0
 26 28  1  0  0  0  0
  1 36  1  0  0  0  0
  2 37  1  0  0  0  0
  3 38  1  0  0  0  0
  4 39  1  0  0  0  0
 13 40  1  0  0  0  0
 14 41  1  0  0  0  0
 15 42  1  0  0  0  0
 19 43  1  0  0  0  0
 19 44  1  0  0  0  0
 19 45  1  0  0  0  0
 20 46  1  0  0  0  0
 20 47  1  0  0  0  0
 20 48  1  0  0  0  0
 21 49  1  0  0  0  0
 21 50  1  0  0  0  0
 21 51  1  0  0  0  0
 22 52  1  0  0  0  0
 22 53  1  0  0  0  0
 23 54  1  0  0  0  0
 23 55  1  0  0  0  0
 24 56  1  0  0  0  0
 24 57  1  0  0  0  0
 25 58  1  0  0  0  0
 30 59  1  0  0  0  0
 33 60  1  0  0  0  0
M  END
> <SMILES>
Cc1cc2nc(cc(c2c(c1C1=CC(=O)N(CC(F)F)C=C1)C)-n1nccc1C)C(=O)NCCO

> <FORMATTED_ID>
H3D-005938

> <MOLFORMULA>
C25H25F2N5O3

> <Exact Mass>
481.19

> <XLogP>
2.51

> <TPSA_NOPS>
100.3

> <s_m_source_file>
ligprep_h3d.sdf

> <i_m_source_file_index>
942

> <i_lp_mmshare_version>
55123

> <i_f3d_flags>
0

> <s_epik_input>
RltDSF0oRilbQ0gyXW4oW2NIXVtjSF0xKWMoPU8pW2NIXWMxLWMoYyhbQ0gzXSlbY0hdMiljKFtDSDNdKWMoYzIzKWMoLW40bltjSF1bY0hdYzRbQ0gzXSlbY0hdYyhuMylDKD1PKVtOSF1bQ0gyXVtDSDJdW09IXQ==

> <s_epik_cmdline>
J2VwaWtfcHl0aG9uJywgJy1waHQnLCAnMC41JywgJy1waCcsICc3LjUnLCAnLXRuJywgJzgnLCAnLW1hJywgJzUwMCcsICctaW1hZScsICc8aW5maWxlLm1hZT4nLCAnLW9tYWUnLCAnPG91dGZpbGUubWFlPic=

> <r_lp_tautomer_probability>
1

> <r_epik_Ionization_Penalty>
1.63269e-05

> <r_epik_Ionization_Penalty_Charging>
4.46171e-08

> <r_epik_Ionization_Penalty_Neutral>
1.62823e-05

> <r_epik_State_Penalty>
-0

> <r_epik_Charging_Adjusted_Penalty>
4.46171e-08

> <i_epik_Tot_Q>
0

> <i_epik_Tot_abs_Q>
0

> <s_lp_Force_Field>
S-OPLS

> <r_lp_Energy>
62.3723

> <b_lp_Chiralities_Consistent>
1

> <s_lp_Variant>
ligprep_h3d.sdf:942-1

> <ROCS_ShapeQuery>
_7L13

> <ROCS_TanimotoCombo>
0.735 

> <ROCS_ShapeTanimoto>
0.623 

> <ROCS_ColorTanimoto>
0.113 

> <ROCS_RefTversky>
0.760 

> <ROCS_RefColorTversky>
0.223 

> <ROCS_RefTverskyCombo>
0.983 

> <ROCS_FitTversky>
0.775 

> <ROCS_FitColorTversky>
0.186 

> <ROCS_FitTverskyCombo>
0.960 

> <ROCS_ColorScore>
-2.026

> <ROCS_Overlap>
1261.334

> <ROCS_Rank>
748                 

$$$$
ligprep_h3d.sdf:737_105
  -OEChem-08212117123D

 60 65  0     1  0  0  0  0  0999 V2000
  -21.0041   -5.1638  -29.5021 C   0  0  0  0  0  0  0  0  0  0  0  0
  -21.7627   -4.3902  -30.3831 C   0  0  0  0  0  0  0  0  0  0  0  0
  -21.1125   -4.9158  -28.1126 C   0  0  0  0  0  0  0  0  0  0  0  0
  -21.9893   -3.9414  -27.5798 C   0  0  0  0  0  0  0  0  0  0  0  0
  -22.5893   -3.4202  -29.8600 C   0  0  0  0  0  0  0  0  0  0  0  0
  -22.7318   -3.1607  -28.4967 C   0  0  0  0  0  0  0  0  0  0  0  0
  -21.9566   -4.2822  -31.7728 C   0  0  0  0  0  0  0  0  0  0  0  0
  -18.9017   -3.8504  -26.2437 C   0  0  0  0  0  0  0  0  0  0  0  0
  -19.2569   -6.0532  -25.0096 C   0  0  0  0  0  0  0  0  0  0  0  0
  -17.0696   -5.2134  -25.8357 C   0  0  0  0  0  0  0  0  0  0  0  0
  -20.2699   -5.7529  -27.1878 C   0  0  0  0  0  0  0  0  0  0  0  0
  -20.7683   -7.3754  -33.4771 C   0  0  0  0  0  0  0  0  0  0  0  0
  -19.8429   -6.8525  -34.5705 C   0  0  0  0  0  0  0  0  0  0  0  0
  -21.8659   -6.3833  -33.0995 C   0  0  0  0  0  0  0  0  0  0  0  0
  -20.0023   -4.6896  -33.2481 C   0  0  0  0  0  0  0  0  0  0  0  0
  -23.0432   -2.7860  -25.6465 C   0  0  0  0  0  0  0  0  0  0  0  0
  -21.2078   -4.4681  -25.2352 C   0  0  2  0  0  0  0  0  0  0  0  0
  -19.7891   -5.3276  -34.6202 C   0  0  1  0  0  0  0  0  0  0  0  0
  -23.4133   -3.0964  -24.1932 C   0  0  1  0  0  0  0  0  0  0  0  0
  -21.0398   -3.5304  -24.0037 C   0  0  2  0  0  0  0  0  0  0  0  0
  -19.8891   -4.9889  -25.8956 C   0  0  2  0  0  0  0  0  0  0  0  0
  -24.4070   -4.2503  -24.0738 C   0  0  0  0  0  0  0  0  0  0  0  0
  -20.0819   -4.0051  -22.9183 C   0  0  0  0  0  0  0  0  0  0  0  0
  -22.8305   -3.3220  -32.0896 N   0  0  0  0  0  0  0  0  0  0  0  0
  -17.6433   -4.2109  -26.5023 N   0  5  0  0  0  0  0  0  0  0  0  0
  -17.8774   -6.0516  -25.0694 N   0  0  0  0  0  0  0  0  0  0  0  0
  -22.0940   -3.7609  -26.1984 N   0  0  3  0  0  0  0  0  0  0  0  0
  -21.2870   -5.1034  -32.6785 N   0  0  0  0  0  0  0  0  0  0  0  0
  -19.3008   -2.6946  -26.3836 O   0  0  0  0  0  0  0  0  0  0  0  0
  -19.8979   -6.8818  -24.3669 O   0  0  0  0  0  0  0  0  0  0  0  0
  -15.8580   -5.4425  -25.8831 O   0  0  0  0  0  0  0  0  0  0  0  0
  -23.2283   -2.7760  -30.8747 O   0  0  0  0  0  0  0  0  0  0  0  0
  -22.3020   -3.3664  -23.3437 O   0  0  0  0  0  0  0  0  0  0  0  0
  -18.5393   -4.9099  -35.1605 O   0  0  0  0  0  0  0  0  0  0  0  0
  -23.4875   -2.1182  -28.1315 F   0  0  0  0  0  0  0  0  0  0  0  0
  -20.3362   -5.9347  -29.8759 H   0  0  0  0  0  0  0  0  0  0  0  0
  -20.8399   -6.6614  -26.9494 H   0  0  0  0  0  0  0  0  0  0  0  0
  -19.3632   -6.0839  -27.7113 H   0  0  0  0  0  0  0  0  0  0  0  0
  -21.2289   -8.3202  -33.8096 H   0  0  0  0  0  0  0  0  0  0  0  0
  -20.1749   -7.6233  -32.5834 H   0  0  0  0  0  0  0  0  0  0  0  0
  -18.8228   -7.2574  -34.4246 H   0  0  0  0  0  0  0  0  0  0  0  0
  -20.1600   -7.2462  -35.5541 H   0  0  0  0  0  0  0  0  0  0  0  0
  -22.5290   -6.2429  -33.9625 H   0  0  0  0  0  0  0  0  0  0  0  0
  -22.4744   -6.7908  -32.2823 H   0  0  0  0  0  0  0  0  0  0  0  0
  -19.1867   -4.9679  -32.5671 H   0  0  0  0  0  0  0  0  0  0  0  0
  -19.9521   -3.5973  -33.3518 H   0  0  0  0  0  0  0  0  0  0  0  0
  -23.9557   -2.8220  -26.2765 H   0  0  0  0  0  0  0  0  0  0  0  0
  -22.7217   -1.7337  -25.6907 H   0  0  0  0  0  0  0  0  0  0  0  0
  -21.7900   -5.3415  -24.8999 H   0  0  0  0  0  0  0  0  0  0  0  0
  -20.5774   -4.9624  -35.3165 H   0  0  0  0  0  0  0  0  0  0  0  0
  -23.9522   -2.1851  -23.7573 H   0  0  0  0  0  0  0  0  0  0  0  0
  -20.7004   -2.5262  -24.3154 H   0  0  0  0  0  0  0  0  0  0  0  0
  -23.9663   -5.1648  -24.4712 H   0  0  0  0  0  0  0  0  0  0  0  0
  -25.3132   -4.0218  -24.6350 H   0  0  0  0  0  0  0  0  0  0  0  0
  -24.6695   -4.4098  -23.0278 H   0  0  0  0  0  0  0  0  0  0  0  0
  -20.3723   -4.9973  -22.5726 H   0  0  0  0  0  0  0  0  0  0  0  0
  -20.1040   -3.3160  -22.0741 H   0  0  0  0  0  0  0  0  0  0  0  0
  -19.0662   -4.0507  -23.3114 H   0  0  0  0  0  0  0  0  0  0  0  0
  -17.3990   -6.7363  -24.4916 H   0  0  0  0  0  0  0  0  0  0  0  0
  -18.4835   -5.2858  -36.0530 H   0  0  0  0  0  0  0  0  0  0  0  0
  1  2  2  0  0  0  0
  1  3  1  0  0  0  0
  2  5  1  0  0  0  0
  2  7  1  0  0  0  0
  3  4  2  0  0  0  0
  3 11  1  0  0  0  0
  4  6  1  0  0  0  0
  4 27  1  0  0  0  0
  5  6  2  0  0  0  0
  5 32  1  0  0  0  0
  6 35  1  0  0  0  0
  7 24  2  0  0  0  0
  7 28  1  0  0  0  0
  8 21  1  0  0  0  0
  8 25  1  0  0  0  0
  8 29  2  0  0  0  0
  9 21  1  0  0  0  0
  9 26  1  0  0  0  0
  9 30  2  0  0  0  0
 10 25  1  0  0  0  0
 10 26  1  0  0  0  0
 10 31  2  0  0  0  0
 11 21  1  0  0  0  0
 12 13  1  0  0  0  0
 12 14  1  0  0  0  0
 13 18  1  0  0  0  0
 14 28  1  0  0  0  0
 15 18  1  0  0  0  0
 15 28  1  0  0  0  0
 16 19  1  0  0  0  0
 16 27  1  0  0  0  0
 17 20  1  0  0  0  0
 17 21  1  0  0  0  0
 17 27  1  0  0  0  0
 18 34  1  0  0  0  0
 19 22  1  0  0  0  0
 19 33  1  0  0  0  0
 20 23  1  0  0  0  0
 20 33  1  0  0  0  0
 24 32  1  0  0  0  0
  1 36  1  0  0  0  0
 11 37  1  0  0  0  0
 11 38  1  0  0  0  0
 12 39  1  0  0  0  0
 12 40  1  0  0  0  0
 13 41  1  0  0  0  0
 13 42  1  0  0  0  0
 14 43  1  0  0  0  0
 14 44  1  0  0  0  0
 15 45  1  0  0  0  0
 15 46  1  0  0  0  0
 16 47  1  0  0  0  0
 16 48  1  0  0  0  0
 17 49  1  0  0  0  0
 18 50  1  0  0  0  0
 19 51  1  0  0  0  0
 20 52  1  0  0  0  0
 22 53  1  0  0  0  0
 22 54  1  0  0  0  0
 22 55  1  0  0  0  0
 23 56  1  0  0  0  0
 23 57  1  0  0  0  0
 23 58  1  0  0  0  0
 26 59  1  0  0  0  0
 34 60  1  0  0  0  0
M  CHG  1  25  -1
M  END
> <SMILES>
C[C@@H]1CN2[C@H]([C@H](C)O1)C1(Cc3cc4c(noc4c(c32)F)N2CCC[C@H](O)C2)C(=O)NC(=O)NC1=O

> <FORMATTED_ID>
H3D-004992

> <MOLFORMULA>
C23H26FN5O6

> <Exact Mass>
487.19

> <XLogP>
0.29

> <TPSA_NOPS>
137.5

> <s_m_source_file>
ligprep_h3d.sdf

> <i_m_source_file_index>
737

> <i_lp_mmshare_version>
55123

> <i_f3d_flags>
0

> <s_epik_input>
Tz1DMVtOSF1DKD1PKVtOSF1DKD1PKUMxMltDQEBIXTNOKFtDSDJdW0NAQEhdKFtDSDNdKU9bQ0BIXTNbQ0gzXSljNGMoW0NIMl0yKVtjSF1jNWMoYzRGKW9uYzVONltDSDJdW0NIMl1bQ0gyXVtDQEhdKFtPSF0pW0NIMl02

> <s_epik_cmdline>
J2VwaWtfcHl0aG9uJywgJy1waHQnLCAnMC41JywgJy1waCcsICc3LjUnLCAnLXRuJywgJzgnLCAnLW1hJywgJzUwMCcsICctaW1hZScsICc8aW5maWxlLm1hZT4nLCAnLW9tYWUnLCAnPG91dGZpbGUubWFlPic=

> <r_lp_tautomer_probability>
1

> <r_epik_Ionization_Penalty>
0.455393

> <r_epik_Ionization_Penalty_Charging>
0.455373

> <r_epik_Ionization_Penalty_Neutral>
1.99082e-05

> <r_epik_State_Penalty>
0.458483

> <r_epik_Charging_Adjusted_Penalty>
0.913857

> <i_epik_Tot_Q>
-1

> <i_epik_Tot_abs_Q>
1

> <s_lp_Force_Field>
S-OPLS

> <r_lp_Energy>
51.9244

> <b_lp_Chiralities_Consistent>
1

> <s_lp_Variant>
ligprep_h3d.sdf:737-2

> <ROCS_ShapeQuery>
_7L13

> <ROCS_TanimotoCombo>
0.740 

> <ROCS_ShapeTanimoto>
0.615 

> <ROCS_ColorTanimoto>
0.125 

> <ROCS_RefTversky>
0.760 

> <ROCS_RefColorTversky>
0.297 

> <ROCS_RefTverskyCombo>
1.057 

> <ROCS_FitTversky>
0.763 

> <ROCS_FitColorTversky>
0.177 

> <ROCS_FitTverskyCombo>
0.940 

> <ROCS_ColorScore>
-2.775

> <ROCS_Overlap>
1262.372

> <ROCS_Rank>
749                 

$$$$
ligprep_h3d.sdf:4755_1996
  -OEChem-08212117123D

 71 75  0     0  0  0  0  0  0999 V2000
  -19.2776   -6.3405  -35.9223 C   0  0  0  0  0  0  0  0  0  0  0  0
  -19.9329   -7.4456  -35.3794 C   0  0  0  0  0  0  0  0  0  0  0  0
  -19.0594   -5.2058  -35.1410 C   0  0  0  0  0  0  0  0  0  0  0  0
  -14.9032   -6.4773  -24.3318 C   0  0  0  0  0  0  0  0  0  0  0  0
  -14.2882   -5.2877  -24.7221 C   0  0  0  0  0  0  0  0  0  0  0  0
  -20.3702   -7.4160  -34.0552 C   0  0  0  0  0  0  0  0  0  0  0  0
  -19.4966   -5.1761  -33.8168 C   0  0  0  0  0  0  0  0  0  0  0  0
  -16.2857   -6.6195  -24.4510 C   0  0  0  0  0  0  0  0  0  0  0  0
  -15.0557   -4.2404  -25.2316 C   0  0  0  0  0  0  0  0  0  0  0  0
  -23.0583   -3.9115  -28.6706 C   0  0  0  0  0  0  0  0  0  0  0  0
  -20.5131   -5.0167  -29.1535 C   0  0  0  0  0  0  0  0  0  0  0  0
  -22.2152   -4.2422  -27.6146 C   0  0  0  0  0  0  0  0  0  0  0  0
  -20.1520   -6.2812  -33.2738 C   0  0  0  0  0  0  0  0  0  0  0  0
  -17.0532   -5.5721  -24.9605 C   0  0  0  0  0  0  0  0  0  0  0  0
  -20.9527   -4.7902  -27.8556 C   0  0  0  0  0  0  0  0  0  0  0  0
  -16.4382   -4.3825  -25.3508 C   0  0  0  0  0  0  0  0  0  0  0  0
  -22.6238   -4.1361  -29.9764 C   0  0  0  0  0  0  0  0  0  0  0  0
  -21.3590   -4.6853  -30.2155 C   0  0  0  0  0  0  0  0  0  0  0  0
  -19.0124   -5.5796  -26.5060 C   0  0  0  0  0  0  0  0  0  0  0  0
  -22.7025   -2.5997  -25.7648 C   0  0  0  0  0  0  0  0  0  0  0  0
  -23.7055   -4.9173  -25.6956 C   0  0  0  0  0  0  0  0  0  0  0  0
  -21.1687   -4.6335  -25.5270 C   0  0  0  0  0  0  0  0  0  0  0  0
  -23.0682   -2.4074  -24.2973 C   0  0  0  0  0  0  0  0  0  0  0  0
  -24.0631   -4.7089  -24.2284 C   0  0  0  0  0  0  0  0  0  0  0  0
  -22.4887   -4.0803  -26.1355 C   0  0  0  0  0  0  0  0  0  0  0  0
  -24.7630   -2.9898  -22.5654 C   0  0  0  0  0  0  0  0  0  0  0  0
  -17.6708   -2.3965  -24.9127 C   0  0  0  0  0  0  0  0  0  0  0  0
  -24.3336   -4.8308  -31.4763 C   0  0  0  0  0  0  0  0  0  0  0  0
  -18.5372   -5.7425  -25.0811 C   0  0  0  0  0  0  0  0  0  0  0  0
  -20.6224   -6.2486  -31.8493 C   0  0  0  0  0  0  0  0  0  0  0  0
  -20.2858   -5.0402  -26.6402 N   0  0  0  0  0  0  0  0  0  0  0  0
  -24.2836   -3.2390  -23.9691 N   0  3  0  0  0  0  0  0  0  0  0  0
  -18.2711   -5.9207  -27.4281 O   0  0  0  0  0  0  0  0  0  0  0  0
  -17.1733   -3.3495  -25.8497 O   0  0  0  0  0  0  0  0  0  0  0  0
  -23.4438   -3.8157  -31.0169 O   0  0  0  0  0  0  0  0  0  0  0  0
  -20.9378   -4.9046  -31.4941 O   0  0  0  0  0  0  0  0  0  0  0  0
  -18.9360   -6.3643  -36.9530 H   0  0  0  0  0  0  0  0  0  0  0  0
  -20.1020   -8.3297  -35.9873 H   0  0  0  0  0  0  0  0  0  0  0  0
  -18.5482   -4.3456  -35.5631 H   0  0  0  0  0  0  0  0  0  0  0  0
  -14.3060   -7.2930  -23.9344 H   0  0  0  0  0  0  0  0  0  0  0  0
  -13.2119   -5.1771  -24.6282 H   0  0  0  0  0  0  0  0  0  0  0  0
  -20.8801   -8.2817  -33.6406 H   0  0  0  0  0  0  0  0  0  0  0  0
  -19.3224   -4.2877  -33.2156 H   0  0  0  0  0  0  0  0  0  0  0  0
  -16.7555   -7.5498  -24.1427 H   0  0  0  0  0  0  0  0  0  0  0  0
  -14.5709   -3.3161  -25.5339 H   0  0  0  0  0  0  0  0  0  0  0  0
  -24.0394   -3.4848  -28.4853 H   0  0  0  0  0  0  0  0  0  0  0  0
  -19.5399   -5.4404  -29.3706 H   0  0  0  0  0  0  0  0  0  0  0  0
  -23.5036   -2.1684  -26.3804 H   0  0  0  0  0  0  0  0  0  0  0  0
  -21.8030   -2.0128  -25.9918 H   0  0  0  0  0  0  0  0  0  0  0  0
  -23.5225   -5.9852  -25.8736 H   0  0  0  0  0  0  0  0  0  0  0  0
  -24.5819   -4.6590  -26.3056 H   0  0  0  0  0  0  0  0  0  0  0  0
  -20.6344   -3.8866  -24.9293 H   0  0  0  0  0  0  0  0  0  0  0  0
  -21.3332   -5.5113  -24.8920 H   0  0  0  0  0  0  0  0  0  0  0  0
  -22.2621   -2.7138  -23.6221 H   0  0  0  0  0  0  0  0  0  0  0  0
  -23.3248   -1.3608  -24.1019 H   0  0  0  0  0  0  0  0  0  0  0  0
  -24.9968   -5.2276  -23.9864 H   0  0  0  0  0  0  0  0  0  0  0  0
  -23.2730   -5.0525  -23.5523 H   0  0  0  0  0  0  0  0  0  0  0  0
  -23.9748   -3.3103  -21.8816 H   0  0  0  0  0  0  0  0  0  0  0  0
  -24.9598   -1.9208  -22.4643 H   0  0  0  0  0  0  0  0  0  0  0  0
  -25.6738   -3.5726  -22.4150 H   0  0  0  0  0  0  0  0  0  0  0  0
  -18.2387   -1.6269  -25.4412 H   0  0  0  0  0  0  0  0  0  0  0  0
  -16.8349   -1.9425  -24.3746 H   0  0  0  0  0  0  0  0  0  0  0  0
  -18.3258   -2.9056  -24.2016 H   0  0  0  0  0  0  0  0  0  0  0  0
  -24.9294   -4.4453  -32.3073 H   0  0  0  0  0  0  0  0  0  0  0  0
  -24.9881   -5.1406  -30.6577 H   0  0  0  0  0  0  0  0  0  0  0  0
  -23.7489   -5.6884  -31.8172 H   0  0  0  0  0  0  0  0  0  0  0  0
  -18.8346   -6.7310  -24.7295 H   0  0  0  0  0  0  0  0  0  0  0  0
  -19.0640   -5.0175  -24.4605 H   0  0  0  0  0  0  0  0  0  0  0  0
  -21.5134   -6.8716  -31.7166 H   0  0  0  0  0  0  0  0  0  0  0  0
  -19.8451   -6.6253  -31.1757 H   0  0  0  0  0  0  0  0  0  0  0  0
  -25.0418   -2.9297  -24.5930 H   0  0  0  0  0  0  0  0  0  0  0  0
  1  2  2  0  0  0  0
  1  3  1  0  0  0  0
  2  6  1  0  0  0  0
  3  7  2  0  0  0  0
  4  5  2  0  0  0  0
  4  8  1  0  0  0  0
  5  9  1  0  0  0  0
  6 13  2  0  0  0  0
  7 13  1  0  0  0  0
  8 14  2  0  0  0  0
  9 16  2  0  0  0  0
 10 12  2  0  0  0  0
 10 17  1  0  0  0  0
 11 15  2  0  0  0  0
 11 18  1  0  0  0  0
 12 15  1  0  0  0  0
 12 25  1  0  0  0  0
 13 30  1  0  0  0  0
 14 16  1  0  0  0  0
 14 29  1  0  0  0  0
 15 31  1  0  0  0  0
 16 34  1  0  0  0  0
 17 18  2  0  0  0  0
 17 35  1  0  0  0  0
 18 36  1  0  0  0  0
 19 29  1  0  0  0  0
 19 31  1  0  0  0  0
 19 33  2  0  0  0  0
 20 23  1  0  0  0  0
 20 25  1  0  0  0  0
 21 24  1  0  0  0  0
 21 25  1  0  0  0  0
 22 25  1  0  0  0  0
 22 31  1  0  0  0  0
 23 32  1  0  0  0  0
 24 32  1  0  0  0  0
 26 32  1  0  0  0  0
 27 34  1  0  0  0  0
 28 35  1  0  0  0  0
 30 36  1  0  0  0  0
  1 37  1  0  0  0  0
  2 38  1  0  0  0  0
  3 39  1  0  0  0  0
  4 40  1  0  0  0  0
  5 41  1  0  0  0  0
  6 42  1  0  0  0  0
  7 43  1  0  0  0  0
  8 44  1  0  0  0  0
  9 45  1  0  0  0  0
 10 46  1  0  0  0  0
 11 47  1  0  0  0  0
 20 48  1  0  0  0  0
 20 49  1  0  0  0  0
 21 50  1  0  0  0  0
 21 51  1  0  0  0  0
 22 52  1  0  0  0  0
 22 53  1  0  0  0  0
 23 54  1  0  0  0  0
 23 55  1  0  0  0  0
 24 56  1  0  0  0  0
 24 57  1  0  0  0  0
 26 58  1  0  0  0  0
 26 59  1  0  0  0  0
 26 60  1  0  0  0  0
 27 61  1  0  0  0  0
 27 62  1  0  0  0  0
 27 63  1  0  0  0  0
 28 64  1  0  0  0  0
 28 65  1  0  0  0  0
 28 66  1  0  0  0  0
 29 67  1  0  0  0  0
 29 68  1  0  0  0  0
 30 69  1  0  0  0  0
 30 70  1  0  0  0  0
 32 71  1  0  0  0  0
M  CHG  1  32   1
M  END
> <SMILES>
COc1ccccc1CC(=O)N1CC2(CCN(C)CC2)c2cc(c(cc21)OCc1ccccc1)OC

> <FORMATTED_ID>
H3D-007396

> <MOLFORMULA>
C30H34N2O4

> <Exact Mass>
486.25

> <XLogP>
5.99

> <TPSA_NOPS>
51.2

> <s_m_source_file>
ligprep_h3d.sdf

> <i_m_source_file_index>
4755

> <i_lp_mmshare_version>
55123

> <i_f3d_flags>
0

> <s_epik_input>
W0NIM11PYzFbY0hdW2NIXVtjSF1bY0hdYzFbQ0gyXUMoPU8pTihbQ0gyXTIpYyhjM0MyNFtDSDJdW0NIMl1OKFtDSDNdKVtDSDJdW0NIMl00KVtjSF1jKGMoW2NIXTMpT1tDSDNdKU9bQ0gyXWM1W2NIXVtjSF1bY0hdW2NIXVtjSF01

> <s_epik_cmdline>
J2VwaWtfcHl0aG9uJywgJy1waHQnLCAnMC41JywgJy1waCcsICc3LjUnLCAnLXRuJywgJzgnLCAnLW1hJywgJzUwMCcsICctaW1hZScsICc8aW5maWxlLm1hZT4nLCAnLW9tYWUnLCAnPG91dGZpbGUubWFlPic=

> <r_lp_tautomer_probability>
1

> <r_epik_Ionization_Penalty>
0.0109699

> <r_epik_Ionization_Penalty_Charging>
0.0109685

> <r_epik_Ionization_Penalty_Neutral>
1.36261e-06

> <r_epik_State_Penalty>
0.00841662

> <r_epik_Charging_Adjusted_Penalty>
0.0193851

> <i_epik_Tot_Q>
1

> <i_epik_Tot_abs_Q>
1

> <s_lp_Force_Field>
S-OPLS

> <r_lp_Energy>
77.4864

> <b_lp_Chiralities_Consistent>
1

> <s_lp_Variant>
ligprep_h3d.sdf:4755-1

> <ROCS_ShapeQuery>
_7L13

> <ROCS_TanimotoCombo>
0.678 

> <ROCS_ShapeTanimoto>
0.619 

> <ROCS_ColorTanimoto>
0.059 

> <ROCS_RefTversky>
0.760 

> <ROCS_RefColorTversky>
0.123 

> <ROCS_RefTverskyCombo>
0.884 

> <ROCS_FitTversky>
0.769 

> <ROCS_FitColorTversky>
0.103 

> <ROCS_FitTverskyCombo>
0.871 

> <ROCS_ColorScore>
-1.121

> <ROCS_Overlap>
1261.817

> <ROCS_Rank>
750                 

$$$$
ligprep_h3d.sdf:391_53
  -OEChem-08212117123D

 57 62  0     1  0  0  0  0  0999 V2000
  -21.1278   -5.0929  -29.8748 C   0  0  0  0  0  0  0  0  0  0  0  0
  -22.0095   -4.3520  -30.6646 C   0  0  0  0  0  0  0  0  0  0  0  0
  -21.2715   -5.0459  -28.4673 C   0  0  0  0  0  0  0  0  0  0  0  0
  -22.2985   -4.3089  -27.8315 C   0  0  0  0  0  0  0  0  0  0  0  0
  -22.9863   -3.6096  -30.0382 C   0  0  0  0  0  0  0  0  0  0  0  0
  -23.1657   -3.5538  -28.6558 C   0  0  0  0  0  0  0  0  0  0  0  0
  -22.2240   -4.1018  -32.0328 C   0  0  0  0  0  0  0  0  0  0  0  0
  -19.2660   -3.8709  -26.4393 C   0  0  0  0  0  0  0  0  0  0  0  0
  -19.2390   -6.2412  -25.4999 C   0  0  0  0  0  0  0  0  0  0  0  0
  -17.2283   -4.9470  -26.1738 C   0  0  0  0  0  0  0  0  0  0  0  0
  -20.2961   -5.8403  -27.6406 C   0  0  0  0  0  0  0  0  0  0  0  0
  -20.2029   -4.9462  -34.9944 C   0  0  0  0  0  0  0  0  0  0  0  0
  -20.6432   -3.9057  -33.9706 C   0  0  0  0  0  0  0  0  0  0  0  0
  -21.2833   -6.1094  -33.2044 C   0  0  0  0  0  0  0  0  0  0  0  0
  -23.5256   -3.6033  -25.7872 C   0  0  0  0  0  0  0  0  0  0  0  0
  -21.4307   -4.9913  -25.5586 C   0  0  2  0  0  0  0  0  0  0  0  0
  -20.1132   -6.2276  -34.1789 C   0  0  1  0  0  0  0  0  0  0  0  0
  -23.8326   -4.1544  -24.3916 C   0  0  1  0  0  0  0  0  0  0  0  0
  -21.4193   -4.2035  -24.2157 C   0  0  2  0  0  0  0  0  0  0  0  0
  -20.0453   -5.1943  -26.2556 C   0  0  2  0  0  0  0  0  0  0  0  0
  -24.6164   -5.4647  -24.4368 C   0  0  0  0  0  0  0  0  0  0  0  0
  -20.3909   -4.6447  -23.1819 C   0  0  0  0  0  0  0  0  0  0  0  0
  -23.2489   -3.2699  -32.2414 N   0  0  0  0  0  0  0  0  0  0  0  0
  -17.9657   -3.9786  -26.7186 N   0  5  0  0  0  0  0  0  0  0  0  0
  -17.8799   -5.9999  -25.5341 N   0  0  0  0  0  0  0  0  0  0  0  0
  -22.4273   -4.3262  -26.4405 N   0  0  3  0  0  0  0  0  0  0  0  0
  -21.4370   -4.6702  -33.0119 N   0  0  0  0  0  0  0  0  0  0  0  0
  -19.8554   -2.7904  -26.4393 O   0  0  0  0  0  0  0  0  0  0  0  0
  -19.7282   -7.2409  -24.9787 O   0  0  0  0  0  0  0  0  0  0  0  0
  -15.9955   -4.9611  -26.2279 O   0  0  0  0  0  0  0  0  0  0  0  0
  -23.7288   -2.9581  -30.9747 O   0  0  0  0  0  0  0  0  0  0  0  0
  -22.6886   -4.3397  -23.5631 O   0  0  0  0  0  0  0  0  0  0  0  0
  -20.2492   -7.3715  -34.9985 O   0  0  0  0  0  0  0  0  0  0  0  0
  -24.0856   -2.7085  -28.1755 F   0  0  0  0  0  0  0  0  0  0  0  0
  -20.3405   -5.6863  -30.3309 H   0  0  0  0  0  0  0  0  0  0  0  0
  -20.7034   -6.8546  -27.5292 H   0  0  0  0  0  0  0  0  0  0  0  0
  -19.3484   -5.9446  -28.1853 H   0  0  0  0  0  0  0  0  0  0  0  0
  -20.9111   -5.0159  -35.8240 H   0  0  0  0  0  0  0  0  0  0  0  0
  -19.2145   -4.6815  -35.3852 H   0  0  0  0  0  0  0  0  0  0  0  0
  -19.7816   -3.4198  -33.5001 H   0  0  0  0  0  0  0  0  0  0  0  0
  -21.2707   -3.1384  -34.4387 H   0  0  0  0  0  0  0  0  0  0  0  0
  -22.2011   -6.5608  -33.5989 H   0  0  0  0  0  0  0  0  0  0  0  0
  -21.0325   -6.5732  -32.2427 H   0  0  0  0  0  0  0  0  0  0  0  0
  -24.4212   -3.7117  -26.4330 H   0  0  0  0  0  0  0  0  0  0  0  0
  -23.3870   -2.5151  -25.6923 H   0  0  0  0  0  0  0  0  0  0  0  0
  -21.8556   -5.9857  -25.3468 H   0  0  0  0  0  0  0  0  0  0  0  0
  -19.1430   -6.2982  -33.6448 H   0  0  0  0  0  0  0  0  0  0  0  0
  -24.5164   -3.4099  -23.8538 H   0  0  0  0  0  0  0  0  0  0  0  0
  -21.2557   -3.1250  -24.3919 H   0  0  0  0  0  0  0  0  0  0  0  0
  -24.0288   -6.2338  -24.9385 H   0  0  0  0  0  0  0  0  0  0  0  0
  -25.5502   -5.3223  -24.9809 H   0  0  0  0  0  0  0  0  0  0  0  0
  -24.8443   -5.7982  -23.4243 H   0  0  0  0  0  0  0  0  0  0  0  0
  -20.5080   -5.7075  -22.9695 H   0  0  0  0  0  0  0  0  0  0  0  0
  -20.5262   -4.0825  -22.2579 H   0  0  0  0  0  0  0  0  0  0  0  0
  -19.3835   -4.4683  -23.5592 H   0  0  0  0  0  0  0  0  0  0  0  0
  -17.2905   -6.6624  -25.0389 H   0  0  0  0  0  0  0  0  0  0  0  0
  -19.5258   -7.3388  -35.6444 H   0  0  0  0  0  0  0  0  0  0  0  0
  1  2  2  0  0  0  0
  1  3  1  0  0  0  0
  2  5  1  0  0  0  0
  2  7  1  0  0  0  0
  3  4  2  0  0  0  0
  3 11  1  0  0  0  0
  4  6  1  0  0  0  0
  4 26  1  0  0  0  0
  5  6  2  0  0  0  0
  5 31  1  0  0  0  0
  6 34  1  0  0  0  0
  7 23  2  0  0  0  0
  7 27  1  0  0  0  0
  8 20  1  0  0  0  0
  8 24  1  0  0  0  0
  8 28  2  0  0  0  0
  9 20  1  0  0  0  0
  9 25  1  0  0  0  0
  9 29  2  0  0  0  0
 10 24  1  0  0  0  0
 10 25  1  0  0  0  0
 10 30  2  0  0  0  0
 11 20  1  0  0  0  0
 12 13  1  0  0  0  0
 12 17  1  0  0  0  0
 13 27  1  0  0  0  0
 14 17  1  0  0  0  0
 14 27  1  0  0  0  0
 15 18  1  0  0  0  0
 15 26  1  0  0  0  0
 16 19  1  0  0  0  0
 16 20  1  0  0  0  0
 16 26  1  0  0  0  0
 17 33  1  0  0  0  0
 18 21  1  0  0  0  0
 18 32  1  0  0  0  0
 19 22  1  0  0  0  0
 19 32  1  0  0  0  0
 23 31  1  0  0  0  0
  1 35  1  0  0  0  0
 11 36  1  0  0  0  0
 11 37  1  0  0  0  0
 12 38  1  0  0  0  0
 12 39  1  0  0  0  0
 13 40  1  0  0  0  0
 13 41  1  0  0  0  0
 14 42  1  0  0  0  0
 14 43  1  0  0  0  0
 15 44  1  0  0  0  0
 15 45  1  0  0  0  0
 16 46  1  0  0  0  0
 17 47  1  0  0  0  0
 18 48  1  0  0  0  0
 19 49  1  0  0  0  0
 21 50  1  0  0  0  0
 21 51  1  0  0  0  0
 21 52  1  0  0  0  0
 22 53  1  0  0  0  0
 22 54  1  0  0  0  0
 22 55  1  0  0  0  0
 25 56  1  0  0  0  0
 33 57  1  0  0  0  0
M  CHG  1  24  -1
M  END
> <SMILES>
CC1CN2C(C(C)O1)C1(Cc3cc4c(noc4c(c32)F)N2CC[C@H](O)C2)C(=O)NC(=O)NC1=O

> <FORMATTED_ID>
H3D-003807

> <MOLFORMULA>
C22H24FN5O6

> <Exact Mass>
473.17

> <XLogP>
-0.16

> <TPSA_NOPS>
137.5

> <s_m_source_file>
ligprep_h3d.sdf

> <i_m_source_file_index>
391

> <i_lp_mmshare_version>
55123

> <i_f3d_flags>
0

> <s_epik_input>
Tz1DMVtOSF1DKD1PKVtOSF1DKD1PKUMxMltDQEBIXTNOKFtDSDJdW0NAQEhdKFtDSDNdKU9bQ0BIXTNbQ0gzXSljNGMoW0NIMl0yKVtjSF1jNWMoYzRGKW9uYzVONltDSDJdW0NIMl1bQ0BIXShbT0hdKVtDSDJdNg==

> <s_epik_cmdline>
J2VwaWtfcHl0aG9uJywgJy1waHQnLCAnMC41JywgJy1waCcsICc3LjUnLCAnLXRuJywgJzgnLCAnLW1hJywgJzUwMCcsICctaW1hZScsICc8aW5maWxlLm1hZT4nLCAnLW9tYWUnLCAnPG91dGZpbGUubWFlPic=

> <r_lp_tautomer_probability>
1

> <r_epik_Ionization_Penalty>
0.455393

> <r_epik_Ionization_Penalty_Charging>
0.455373

> <r_epik_Ionization_Penalty_Neutral>
1.99512e-05

> <r_epik_State_Penalty>
0.458483

> <r_epik_Charging_Adjusted_Penalty>
0.913857

> <i_epik_Tot_Q>
-1

> <i_epik_Tot_abs_Q>
1

> <s_lp_Force_Field>
S-OPLS

> <r_lp_Energy>
49.1292

> <b_lp_Chiralities_Consistent>
1

> <s_lp_Variant>
ligprep_h3d.sdf:391-2

> <ROCS_ShapeQuery>
_7L13

> <ROCS_TanimotoCombo>
0.704 

> <ROCS_ShapeTanimoto>
0.625 

> <ROCS_ColorTanimoto>
0.079 

> <ROCS_RefTversky>
0.760 

> <ROCS_RefColorTversky>
0.196 

> <ROCS_RefTverskyCombo>
0.956 

> <ROCS_FitTversky>
0.778 

> <ROCS_FitColorTversky>
0.117 

> <ROCS_FitTverskyCombo>
0.895 

> <ROCS_ColorScore>
-1.832

> <ROCS_Overlap>
1260.820

> <ROCS_Rank>
751                 

$$$$
ligprep_h3d.sdf:4898_1821
  -OEChem-08212117123D

 61 65  0     1  0  0  0  0  0999 V2000
  -21.1034   -4.7538  -34.2975 C   0  0  0  0  0  0  0  0  0  0  0  0
  -17.1287   -6.2357  -26.1604 C   0  0  0  0  0  0  0  0  0  0  0  0
  -16.9702   -3.8746  -25.6735 C   0  0  0  0  0  0  0  0  0  0  0  0
  -23.5332   -3.9176  -24.1431 C   0  0  0  0  0  0  0  0  0  0  0  0
  -25.7014   -4.7304  -24.8323 C   0  0  0  0  0  0  0  0  0  0  0  0
  -20.6081   -5.6269  -35.2660 C   0  0  0  0  0  0  0  0  0  0  0  0
  -15.8619   -6.4340  -25.6114 C   0  0  0  0  0  0  0  0  0  0  0  0
  -15.7034   -4.0729  -25.1243 C   0  0  0  0  0  0  0  0  0  0  0  0
  -23.7715   -4.3792  -22.8486 C   0  0  0  0  0  0  0  0  0  0  0  0
  -25.9398   -5.1922  -23.5378 C   0  0  0  0  0  0  0  0  0  0  0  0
  -19.2115   -6.6819  -33.6006 C   0  0  0  0  0  0  0  0  0  0  0  0
  -20.6527   -4.8447  -32.9805 C   0  0  0  0  0  0  0  0  0  0  0  0
  -17.6828   -4.9559  -26.1916 C   0  0  0  0  0  0  0  0  0  0  0  0
  -24.4982   -4.0931  -25.1349 C   0  0  0  0  0  0  0  0  0  0  0  0
  -19.6622   -6.5910  -34.9176 C   0  0  0  0  0  0  0  0  0  0  0  0
  -15.1492   -5.3526  -25.0933 C   0  0  0  0  0  0  0  0  0  0  0  0
  -24.9748   -5.0166  -22.5460 C   0  0  0  0  0  0  0  0  0  0  0  0
  -19.7068   -5.8088  -32.6321 C   0  0  0  0  0  0  0  0  0  0  0  0
  -22.1916   -4.5711  -31.0352 C   0  0  0  0  0  0  0  0  0  0  0  0
  -22.7637   -5.1646  -28.6959 C   0  0  0  0  0  0  0  0  0  0  0  0
  -19.8844   -5.6628  -27.3302 C   0  0  0  0  0  0  0  0  0  0  0  0
  -19.8894   -3.6902  -26.6059 C   0  0  0  0  0  0  0  0  0  0  0  0
  -20.6924   -3.9549  -29.0866 C   0  0  0  0  0  0  0  0  0  0  0  0
  -22.2710   -4.6502  -27.3472 C   0  0  1  0  0  0  0  0  0  0  0  0
  -20.7820   -4.4298  -27.6325 C   0  0  0  0  0  0  0  0  0  0  0  0
  -21.1877   -3.9045  -31.9417 C   0  0  0  0  0  0  0  0  0  0  0  0
  -22.9676   -3.3474  -26.9589 C   0  0  0  0  0  0  0  0  0  0  0  0
  -18.9560   -4.7566  -26.7434 N   0  0  0  0  0  0  0  0  0  0  0  0
  -21.8848   -4.5517  -29.6840 N   0  0  0  0  0  0  0  0  0  0  0  0
  -24.2595   -3.6308  -26.4312 N   0  0  0  0  0  0  0  0  0  0  0  0
  -23.2042   -5.0929  -31.5052 O   0  0  0  0  0  0  0  0  0  0  0  0
  -19.1801   -7.4435  -35.8627 O   0  0  0  0  0  0  0  0  0  0  0  0
  -13.9327   -5.5430  -24.5660 F   0  0  0  0  0  0  0  0  0  0  0  0
  -25.2037   -5.4599  -21.3029 F   0  0  0  0  0  0  0  0  0  0  0  0
  -19.2668   -5.9028  -31.3695 F   0  0  0  0  0  0  0  0  0  0  0  0
  -21.8399   -4.0056  -34.5783 H   0  0  0  0  0  0  0  0  0  0  0  0
  -17.6754   -7.0855  -26.5611 H   0  0  0  0  0  0  0  0  0  0  0  0
  -17.3924   -2.8731  -25.6928 H   0  0  0  0  0  0  0  0  0  0  0  0
  -22.5919   -3.4226  -24.3681 H   0  0  0  0  0  0  0  0  0  0  0  0
  -26.4605   -4.8723  -25.5974 H   0  0  0  0  0  0  0  0  0  0  0  0
  -20.9617   -5.5506  -36.2907 H   0  0  0  0  0  0  0  0  0  0  0  0
  -15.4302   -7.4302  -25.5868 H   0  0  0  0  0  0  0  0  0  0  0  0
  -15.1480   -3.2312  -24.7211 H   0  0  0  0  0  0  0  0  0  0  0  0
  -23.0204   -4.2429  -22.0763 H   0  0  0  0  0  0  0  0  0  0  0  0
  -26.8766   -5.6881  -23.3015 H   0  0  0  0  0  0  0  0  0  0  0  0
  -18.4750   -7.4308  -33.3229 H   0  0  0  0  0  0  0  0  0  0  0  0
  -22.6223   -6.2489  -28.7763 H   0  0  0  0  0  0  0  0  0  0  0  0
  -23.8134   -4.9386  -28.9081 H   0  0  0  0  0  0  0  0  0  0  0  0
  -20.2847   -6.3756  -26.6007 H   0  0  0  0  0  0  0  0  0  0  0  0
  -19.4758   -6.2020  -28.1890 H   0  0  0  0  0  0  0  0  0  0  0  0
  -19.4871   -2.7233  -26.9185 H   0  0  0  0  0  0  0  0  0  0  0  0
  -20.2935   -3.6225  -25.5903 H   0  0  0  0  0  0  0  0  0  0  0  0
  -20.7858   -2.8667  -29.1665 H   0  0  0  0  0  0  0  0  0  0  0  0
  -19.7883   -4.2808  -29.6086 H   0  0  0  0  0  0  0  0  0  0  0  0
  -22.4398   -5.3910  -26.5579 H   0  0  0  0  0  0  0  0  0  0  0  0
  -20.3718   -3.5153  -31.3302 H   0  0  0  0  0  0  0  0  0  0  0  0
  -21.6652   -3.0420  -32.4091 H   0  0  0  0  0  0  0  0  0  0  0  0
  -22.3455   -2.8599  -26.2104 H   0  0  0  0  0  0  0  0  0  0  0  0
  -23.0454   -2.7425  -27.8606 H   0  0  0  0  0  0  0  0  0  0  0  0
  -25.0809   -3.4915  -27.0256 H   0  0  0  0  0  0  0  0  0  0  0  0
  -18.5343   -8.0516  -35.4691 H   0  0  0  0  0  0  0  0  0  0  0  0
  1  6  1  0  0  0  0
  1 12  2  0  0  0  0
  2  7  1  0  0  0  0
  2 13  2  0  0  0  0
  3  8  2  0  0  0  0
  3 13  1  0  0  0  0
  4  9  1  0  0  0  0
  4 14  2  0  0  0  0
  5 10  2  0  0  0  0
  5 14  1  0  0  0  0
  6 15  2  0  0  0  0
  7 16  2  0  0  0  0
  8 16  1  0  0  0  0
  9 17  2  0  0  0  0
 10 17  1  0  0  0  0
 11 15  1  0  0  0  0
 11 18  2  0  0  0  0
 12 18  1  0  0  0  0
 12 26  1  0  0  0  0
 13 28  1  0  0  0  0
 14 30  1  0  0  0  0
 15 32  1  0  0  0  0
 16 33  1  0  0  0  0
 17 34  1  0  0  0  0
 18 35  1  0  0  0  0
 19 26  1  0  0  0  0
 19 29  1  0  0  0  0
 19 31  2  0  0  0  0
 20 24  1  0  0  0  0
 20 29  1  0  0  0  0
 21 25  1  0  0  0  0
 21 28  1  0  0  0  0
 22 25  1  0  0  0  0
 22 28  1  0  0  0  0
 23 25  1  0  0  0  0
 23 29  1  0  0  0  0
 24 25  1  0  0  0  0
 24 27  1  0  0  0  0
 27 30  1  0  0  0  0
  1 36  1  0  0  0  0
  2 37  1  0  0  0  0
  3 38  1  0  0  0  0
  4 39  1  0  0  0  0
  5 40  1  0  0  0  0
  6 41  1  0  0  0  0
  7 42  1  0  0  0  0
  8 43  1  0  0  0  0
  9 44  1  0  0  0  0
 10 45  1  0  0  0  0
 11 46  1  0  0  0  0
 20 47  1  0  0  0  0
 20 48  1  0  0  0  0
 21 49  1  0  0  0  0
 21 50  1  0  0  0  0
 22 51  1  0  0  0  0
 22 52  1  0  0  0  0
 23 53  1  0  0  0  0
 23 54  1  0  0  0  0
 24 55  1  0  0  0  0
 26 56  1  0  0  0  0
 26 57  1  0  0  0  0
 27 58  1  0  0  0  0
 27 59  1  0  0  0  0
 30 60  1  0  0  0  0
 32 61  1  0  0  0  0
M  END
> <SMILES>
Oc1ccc(c(c1)F)CC(=O)N1CC(CNc2ccc(cc2)F)C2(C1)CN(C2)c1ccc(cc1)F

> <FORMATTED_ID>
H3D-008296

> <MOLFORMULA>
C27H26F3N3O2

> <Exact Mass>
481.2

> <XLogP>
4.12

> <TPSA_NOPS>
55.8

> <s_m_source_file>
ligprep_h3d.sdf

> <i_m_source_file_index>
4898

> <i_lp_mmshare_version>
55123

> <i_f3d_flags>
0

> <s_epik_input>
W09IXWMxW2NIXVtjSF1jKGMoRilbY0hdMSlbQ0gyXUMoPU8pTihbQ0gyXTIpW0NIMl1bQ0BIXShbQ0gyXVtOSF1jM1tjSF1bY0hdYyhGKVtjSF1bY0hdMylDMjRbQ0gyXU4oW0NIMl00KWM1W2NIXVtjSF1jKEYpW2NIXVtjSF01

> <s_epik_cmdline>
J2VwaWtfcHl0aG9uJywgJy1waHQnLCAnMC41JywgJy1waCcsICc3LjUnLCAnLXRuJywgJzgnLCAnLW1hJywgJzUwMCcsICctaW1hZScsICc8aW5maWxlLm1hZT4nLCAnLW9tYWUnLCAnPG91dGZpbGUubWFlPic=

> <r_lp_tautomer_probability>
1

> <r_epik_Ionization_Penalty>
0.0181924

> <r_epik_Ionization_Penalty_Charging>
0

> <r_epik_Ionization_Penalty_Neutral>
0.0181924

> <r_epik_State_Penalty>
0.0117759

> <r_epik_Charging_Adjusted_Penalty>
0.0117759

> <i_epik_Tot_Q>
0

> <i_epik_Tot_abs_Q>
0

> <s_lp_Force_Field>
S-OPLS

> <r_lp_Energy>
40.4104

> <b_lp_Chiralities_Consistent>
1

> <s_lp_Variant>
ligprep_h3d.sdf:4898-1

> <ROCS_ShapeQuery>
_7L13

> <ROCS_TanimotoCombo>
0.695 

> <ROCS_ShapeTanimoto>
0.628 

> <ROCS_ColorTanimoto>
0.066 

> <ROCS_RefTversky>
0.760 

> <ROCS_RefColorTversky>
0.125 

> <ROCS_RefTverskyCombo>
0.885 

> <ROCS_FitTversky>
0.784 

> <ROCS_FitColorTversky>
0.124 

> <ROCS_FitTverskyCombo>
0.908 

> <ROCS_ColorScore>
-1.121

> <ROCS_Overlap>
1260.237

> <ROCS_Rank>
752                 

$$$$
ligprep_h3d.sdf:836_120
  -OEChem-08212117123D

 59 64  0     1  0  0  0  0  0999 V2000
  -20.9822   -5.1518  -29.5029 C   0  0  0  0  0  0  0  0  0  0  0  0
  -21.7475   -4.3857  -30.3848 C   0  0  0  0  0  0  0  0  0  0  0  0
  -21.0957   -4.9059  -28.1134 C   0  0  0  0  0  0  0  0  0  0  0  0
  -21.9839   -3.9413  -27.5815 C   0  0  0  0  0  0  0  0  0  0  0  0
  -22.5855   -3.4251  -29.8625 C   0  0  0  0  0  0  0  0  0  0  0  0
  -22.7332   -3.1681  -28.4993 C   0  0  0  0  0  0  0  0  0  0  0  0
  -21.9402   -4.2789  -31.7748 C   0  0  0  0  0  0  0  0  0  0  0  0
  -18.8999   -3.8180  -26.2399 C   0  0  0  0  0  0  0  0  0  0  0  0
  -19.2335   -6.0254  -25.0079 C   0  0  0  0  0  0  0  0  0  0  0  0
  -17.0539   -5.1615  -25.8296 C   0  0  0  0  0  0  0  0  0  0  0  0
  -19.9216   -3.5448  -33.9902 C   0  0  0  0  0  0  0  0  0  0  0  0
  -20.2458   -5.7345  -27.1877 C   0  0  0  0  0  0  0  0  0  0  0  0
  -19.6645   -5.9895  -34.1635 C   0  0  0  0  0  0  0  0  0  0  0  0
  -21.7849   -6.3730  -33.1240 C   0  0  0  0  0  0  0  0  0  0  0  0
  -23.0536   -2.7987  -25.6494 C   0  0  0  0  0  0  0  0  0  0  0  0
  -19.9291   -4.8208  -33.2107 C   0  0  2  0  0  0  0  0  0  0  0  0
  -21.2010   -4.4612  -25.2360 C   0  0  2  0  0  0  0  0  0  0  0  0
  -20.5456   -7.1066  -33.6264 C   0  0  1  0  0  0  0  0  0  0  0  0
  -23.4229   -3.1141  -24.1970 C   0  0  1  0  0  0  0  0  0  0  0  0
  -21.0453   -3.5226  -24.0035 C   0  0  2  0  0  0  0  0  0  0  0  0
  -19.8755   -4.9674  -25.8943 C   0  0  2  0  0  0  0  0  0  0  0  0
  -24.4044   -4.2787  -24.0801 C   0  0  0  0  0  0  0  0  0  0  0  0
  -20.0842   -3.9877  -22.9168 C   0  0  0  0  0  0  0  0  0  0  0  0
  -22.8238   -3.3279  -32.0924 N   0  0  0  0  0  0  0  0  0  0  0  0
  -17.6372   -4.1648  -26.4965 N   0  5  0  0  0  0  0  0  0  0  0  0
  -17.8541   -6.0089  -25.0653 N   0  0  0  0  0  0  0  0  0  0  0  0
  -22.0931   -3.7629  -26.2002 N   0  0  3  0  0  0  0  0  0  0  0  0
  -21.2664   -5.0848  -32.6715 N   0  0  0  0  0  0  0  0  0  0  0  0
  -20.6693   -2.6332  -33.5393 O   0  5  0  0  0  0  0  0  0  0  0  0
  -19.3112   -2.6664  -26.3798 O   0  0  0  0  0  0  0  0  0  0  0  0
  -19.8667   -6.8612  -24.3670 O   0  0  0  0  0  0  0  0  0  0  0  0
  -15.8398   -5.3775  -25.8750 O   0  0  0  0  0  0  0  0  0  0  0  0
  -19.1652   -3.5464  -35.0017 O   0  0  0  0  0  0  0  0  0  0  0  0
  -23.2296   -2.7871  -30.8779 O   0  0  0  0  0  0  0  0  0  0  0  0
  -22.3104   -3.3727  -23.3456 O   0  0  0  0  0  0  0  0  0  0  0  0
  -20.8610   -8.0294  -34.6501 O   0  0  0  0  0  0  0  0  0  0  0  0
  -23.5008   -2.1340  -28.1347 F   0  0  0  0  0  0  0  0  0  0  0  0
  -20.3054   -5.9151  -29.8760 H   0  0  0  0  0  0  0  0  0  0  0  0
  -20.8065   -6.6492  -26.9510 H   0  0  0  0  0  0  0  0  0  0  0  0
  -19.3347   -6.0553  -27.7099 H   0  0  0  0  0  0  0  0  0  0  0  0
  -19.8971   -5.7414  -35.2035 H   0  0  0  0  0  0  0  0  0  0  0  0
  -18.6111   -6.2827  -34.0897 H   0  0  0  0  0  0  0  0  0  0  0  0
  -22.5400   -6.2414  -33.9034 H   0  0  0  0  0  0  0  0  0  0  0  0
  -22.2204   -6.9072  -32.2737 H   0  0  0  0  0  0  0  0  0  0  0  0
  -23.9646   -2.8441  -26.2811 H   0  0  0  0  0  0  0  0  0  0  0  0
  -22.7435   -1.7430  -25.6923 H   0  0  0  0  0  0  0  0  0  0  0  0
  -19.1507   -4.7851  -32.4349 H   0  0  0  0  0  0  0  0  0  0  0  0
  -21.7744   -5.3411  -24.9022 H   0  0  0  0  0  0  0  0  0  0  0  0
  -20.0368   -7.6573  -32.8148 H   0  0  0  0  0  0  0  0  0  0  0  0
  -23.9725   -2.2089  -23.7614 H   0  0  0  0  0  0  0  0  0  0  0  0
  -20.7162   -2.5146  -24.3140 H   0  0  0  0  0  0  0  0  0  0  0  0
  -23.9532   -5.1882  -24.4773 H   0  0  0  0  0  0  0  0  0  0  0  0
  -25.3120   -4.0596  -24.6428 H   0  0  0  0  0  0  0  0  0  0  0  0
  -24.6671   -4.4418  -23.0347 H   0  0  0  0  0  0  0  0  0  0  0  0
  -20.3645   -4.9832  -22.5722 H   0  0  0  0  0  0  0  0  0  0  0  0
  -20.1152   -3.2995  -22.0721 H   0  0  0  0  0  0  0  0  0  0  0  0
  -19.0674   -4.0221  -23.3081 H   0  0  0  0  0  0  0  0  0  0  0  0
  -17.3693   -6.6887  -24.4871 H   0  0  0  0  0  0  0  0  0  0  0  0
  -20.0187   -8.3902  -34.9704 H   0  0  0  0  0  0  0  0  0  0  0  0
  1  2  2  0  0  0  0
  1  3  1  0  0  0  0
  2  5  1  0  0  0  0
  2  7  1  0  0  0  0
  3  4  2  0  0  0  0
  3 12  1  0  0  0  0
  4  6  1  0  0  0  0
  4 27  1  0  0  0  0
  5  6  2  0  0  0  0
  5 34  1  0  0  0  0
  6 37  1  0  0  0  0
  7 24  2  0  0  0  0
  7 28  1  0  0  0  0
  8 21  1  0  0  0  0
  8 25  1  0  0  0  0
  8 30  2  0  0  0  0
  9 21  1  0  0  0  0
  9 26  1  0  0  0  0
  9 31  2  0  0  0  0
 10 25  1  0  0  0  0
 10 26  1  0  0  0  0
 10 32  2  0  0  0  0
 11 16  1  0  0  0  0
 11 29  1  0  0  0  0
 11 33  2  0  0  0  0
 12 21  1  0  0  0  0
 13 16  1  0  0  0  0
 13 18  1  0  0  0  0
 14 18  1  0  0  0  0
 14 28  1  0  0  0  0
 15 19  1  0  0  0  0
 15 27  1  0  0  0  0
 16 28  1  0  0  0  0
 17 20  1  0  0  0  0
 17 21  1  0  0  0  0
 17 27  1  0  0  0  0
 18 36  1  0  0  0  0
 19 22  1  0  0  0  0
 19 35  1  0  0  0  0
 20 23  1  0  0  0  0
 20 35  1  0  0  0  0
 24 34  1  0  0  0  0
  1 38  1  0  0  0  0
 12 39  1  0  0  0  0
 12 40  1  0  0  0  0
 13 41  1  0  0  0  0
 13 42  1  0  0  0  0
 14 43  1  0  0  0  0
 14 44  1  0  0  0  0
 15 45  1  0  0  0  0
 15 46  1  0  0  0  0
 16 47  1  0  0  0  0
 17 48  1  0  0  0  0
 18 49  1  0  0  0  0
 19 50  1  0  0  0  0
 20 51  1  0  0  0  0
 22 52  1  0  0  0  0
 22 53  1  0  0  0  0
 22 54  1  0  0  0  0
 23 55  1  0  0  0  0
 23 56  1  0  0  0  0
 23 57  1  0  0  0  0
 26 58  1  0  0  0  0
 36 59  1  0  0  0  0
M  CHG  2  25  -1  29  -1
M  END
> <SMILES>
C[C@@H]1CN2[C@H]([C@H](C)O1)C1(Cc3cc4c(noc4c(c32)F)N2C[C@@H](O)C[C@H]2C(=O)O)C(=O)NC(=O)NC1=O

> <FORMATTED_ID>
H3D-005608

> <MOLFORMULA>
C23H24FN5O8

> <Exact Mass>
517.16

> <XLogP>
-1.05

> <TPSA_NOPS>
174.8

> <s_m_source_file>
ligprep_h3d.sdf

> <i_m_source_file_index>
836

> <i_lp_mmshare_version>
55123

> <i_f3d_flags>
0

> <s_epik_input>
Tz1DMVtOSF1DKD1PKVtOSF1DKD1PKUMxMltDQEBIXTNOKFtDSDJdW0NAQEhdKFtDSDNdKU9bQ0BIXTNbQ0gzXSljNGMoW0NIMl0yKVtjSF1jNWMoYzRGKW9uYzVONltDSDJdW0NAQEhdKFtPSF0pW0NIMl1bQ0BIXTZDKD1PKVtPSF0=

> <s_epik_cmdline>
J2VwaWtfcHl0aG9uJywgJy1waHQnLCAnMC41JywgJy1waCcsICc3LjUnLCAnLXRuJywgJzgnLCAnLW1hJywgJzUwMCcsICctaW1hZScsICc8aW5maWxlLm1hZT4nLCAnLW9tYWUnLCAnPG91dGZpbGUubWFlPic=

> <r_lp_tautomer_probability>
1

> <r_epik_Ionization_Penalty>
0.45546

> <r_epik_Ionization_Penalty_Charging>
0.45544

> <r_epik_Ionization_Penalty_Neutral>
1.95694e-05

> <r_epik_State_Penalty>
0.458483

> <r_epik_Charging_Adjusted_Penalty>
0.913924

> <i_epik_Tot_Q>
-2

> <i_epik_Tot_abs_Q>
2

> <s_lp_Force_Field>
S-OPLS

> <r_lp_Energy>
55.5325

> <b_lp_Chiralities_Consistent>
1

> <s_lp_Variant>
ligprep_h3d.sdf:836-2

> <ROCS_ShapeQuery>
_7L13

> <ROCS_TanimotoCombo>
0.697 

> <ROCS_ShapeTanimoto>
0.588 

> <ROCS_ColorTanimoto>
0.110 

> <ROCS_RefTversky>
0.760 

> <ROCS_RefColorTversky>
0.292 

> <ROCS_RefTverskyCombo>
1.052 

> <ROCS_FitTversky>
0.721 

> <ROCS_FitColorTversky>
0.150 

> <ROCS_FitTverskyCombo>
0.871 

> <ROCS_ColorScore>
-2.773

> <ROCS_Overlap>
1265.876

> <ROCS_Rank>
753                 

$$$$
ligprep_h3d.sdf:859_525
  -OEChem-08212117123D

 71 76  0     0  0  0  0  0  0999 V2000
  -16.9215   -5.5951  -25.6827 C   0  0  0  0  0  0  0  0  0  0  0  0
  -22.6696   -4.6091  -29.2525 C   0  0  0  0  0  0  0  0  0  0  0  0
  -21.0551   -4.3964  -25.4291 C   0  0  0  0  0  0  0  0  0  0  0  0
  -16.8836   -4.2001  -25.8685 C   0  0  0  0  0  0  0  0  0  0  0  0
  -19.4391   -5.1092  -35.9265 C   0  0  0  0  0  0  0  0  0  0  0  0
  -20.7511   -4.7015  -27.8080 C   0  0  0  0  0  0  0  0  0  0  0  0
  -21.8563   -4.8404  -30.3647 C   0  0  0  0  0  0  0  0  0  0  0  0
  -19.9328   -4.9341  -28.9265 C   0  0  0  0  0  0  0  0  0  0  0  0
  -22.1430   -4.5354  -27.9659 C   0  0  0  0  0  0  0  0  0  0  0  0
  -20.2205   -4.6273  -26.5131 C   0  0  0  0  0  0  0  0  0  0  0  0
  -20.4861   -5.0032  -30.2018 C   0  0  0  0  0  0  0  0  0  0  0  0
  -18.8665   -5.9271  -34.9851 C   0  0  0  0  0  0  0  0  0  0  0  0
  -18.2320   -5.9365  -25.9117 C   0  0  0  0  0  0  0  0  0  0  0  0
  -22.4035   -4.2468  -25.6825 C   0  0  0  0  0  0  0  0  0  0  0  0
  -18.1396   -6.6973  -32.5890 C   0  0  0  0  0  0  0  0  0  0  0  0
  -18.3161   -4.2655  -33.1176 C   0  0  0  0  0  0  0  0  0  0  0  0
  -19.4253   -6.6096  -31.7582 C   0  0  0  0  0  0  0  0  0  0  0  0
  -19.6430   -4.2030  -32.3635 C   0  0  0  0  0  0  0  0  0  0  0  0
  -24.4643   -3.2330  -24.7407 C   0  0  0  0  0  0  0  0  0  0  0  0
  -23.2007   -4.8451  -23.3872 C   0  0  0  0  0  0  0  0  0  0  0  0
  -25.6674   -4.1865  -24.7095 C   0  0  0  0  0  0  0  0  0  0  0  0
  -24.4088   -5.7856  -23.3835 C   0  0  0  0  0  0  0  0  0  0  0  0
  -18.0481   -5.6582  -33.7252 C   0  0  0  0  0  0  0  0  0  0  0  0
  -22.4910   -4.9063  -31.7162 C   0  0  0  0  0  0  0  0  0  0  0  0
  -18.4453   -5.1208  -28.8385 C   0  0  0  0  0  0  0  0  0  0  0  0
  -18.9027   -7.2507  -25.8707 C   0  0  0  0  0  0  0  0  0  0  0  0
  -26.8167   -5.9098  -23.4723 C   0  0  0  0  0  0  0  0  0  0  0  0
  -20.0709   -5.8687  -36.8718 N   0  0  0  0  0  0  0  0  0  0  0  0
  -18.0753   -3.6903  -26.1908 N   0  0  0  0  0  0  0  0  0  0  0  0
  -22.9555   -4.3112  -26.9158 N   0  0  0  0  0  0  0  0  0  0  0  0
  -19.9086   -7.1460  -36.5444 N   0  0  0  0  0  0  0  0  0  0  0  0
  -19.1863   -7.1789  -35.4128 N   0  0  0  0  0  0  0  0  0  0  0  0
  -18.8743   -4.7707  -26.2094 N   0  0  0  0  0  0  0  0  0  0  0  0
  -19.6770   -5.2342  -31.3205 N   0  0  0  0  0  0  0  0  0  0  0  0
  -23.2351   -4.0174  -24.5936 N   0  0  0  0  0  0  0  0  0  0  0  0
  -25.6599   -5.0158  -23.4928 N   0  0  0  0  0  0  0  0  0  0  0  0
  -16.1105   -6.2584  -25.4199 H   0  0  0  0  0  0  0  0  0  0  0  0
  -23.7421   -4.4831  -29.3957 H   0  0  0  0  0  0  0  0  0  0  0  0
  -20.6661   -4.3355  -24.4164 H   0  0  0  0  0  0  0  0  0  0  0  0
  -16.0371   -3.5340  -25.7826 H   0  0  0  0  0  0  0  0  0  0  0  0
  -19.4298   -4.0307  -35.9749 H   0  0  0  0  0  0  0  0  0  0  0  0
  -17.2672   -6.5881  -31.9122 H   0  0  0  0  0  0  0  0  0  0  0  0
  -18.0471   -7.7232  -33.0052 H   0  0  0  0  0  0  0  0  0  0  0  0
  -18.3106   -3.5000  -33.9113 H   0  0  0  0  0  0  0  0  0  0  0  0
  -17.4966   -3.9939  -32.4337 H   0  0  0  0  0  0  0  0  0  0  0  0
  -20.2634   -6.9826  -32.3697 H   0  0  0  0  0  0  0  0  0  0  0  0
  -19.3486   -7.2745  -30.8815 H   0  0  0  0  0  0  0  0  0  0  0  0
  -19.7716   -3.2103  -31.9108 H   0  0  0  0  0  0  0  0  0  0  0  0
  -20.4641   -4.3481  -33.0779 H   0  0  0  0  0  0  0  0  0  0  0  0
  -24.4637   -2.6978  -25.6898 H   0  0  0  0  0  0  0  0  0  0  0  0
  -24.5451   -2.5079  -23.9303 H   0  0  0  0  0  0  0  0  0  0  0  0
  -23.2206   -4.2102  -22.4970 H   0  0  0  0  0  0  0  0  0  0  0  0
  -22.2870   -5.4435  -23.3613 H   0  0  0  0  0  0  0  0  0  0  0  0
  -26.5805   -3.5797  -24.7380 H   0  0  0  0  0  0  0  0  0  0  0  0
  -25.6657   -4.8113  -25.6127 H   0  0  0  0  0  0  0  0  0  0  0  0
  -24.3183   -6.5090  -24.2008 H   0  0  0  0  0  0  0  0  0  0  0  0
  -24.4011   -6.3461  -22.4442 H   0  0  0  0  0  0  0  0  0  0  0  0
  -16.9549   -5.6397  -34.0683 H   0  0  0  0  0  0  0  0  0  0  0  0
  -22.5176   -3.9099  -32.1712 H   0  0  0  0  0  0  0  0  0  0  0  0
  -21.9371   -5.5804  -32.3805 H   0  0  0  0  0  0  0  0  0  0  0  0
  -23.5163   -5.2904  -31.6529 H   0  0  0  0  0  0  0  0  0  0  0  0
  -18.2111   -6.1802  -28.7039 H   0  0  0  0  0  0  0  0  0  0  0  0
  -17.9545   -4.7599  -29.7472 H   0  0  0  0  0  0  0  0  0  0  0  0
  -18.0323   -4.5548  -27.9981 H   0  0  0  0  0  0  0  0  0  0  0  0
  -19.2935   -7.4661  -24.8627 H   0  0  0  0  0  0  0  0  0  0  0  0
  -19.7487   -7.3057  -26.5769 H   0  0  0  0  0  0  0  0  0  0  0  0
  -18.2203   -8.0723  -26.1483 H   0  0  0  0  0  0  0  0  0  0  0  0
  -26.7931   -6.5198  -22.5572 H   0  0  0  0  0  0  0  0  0  0  0  0
  -27.7410   -5.3137  -23.4917 H   0  0  0  0  0  0  0  0  0  0  0  0
  -26.7866   -6.5684  -24.3528 H   0  0  0  0  0  0  0  0  0  0  0  0
  -18.9541   -8.0754  -35.0023 H   0  0  0  0  0  0  0  0  0  0  0  0
  1  4  1  0  0  0  0
  1 13  2  0  0  0  0
  2  7  2  0  0  0  0
  2  9  1  0  0  0  0
  3 10  1  0  0  0  0
  3 14  2  0  0  0  0
  4 29  2  0  0  0  0
  5 12  2  0  0  0  0
  5 28  1  0  0  0  0
  6  8  1  0  0  0  0
  6  9  1  0  0  0  0
  6 10  2  0  0  0  0
  7 11  1  0  0  0  0
  7 24  1  0  0  0  0
  8 11  2  0  0  0  0
  8 25  1  0  0  0  0
  9 30  2  0  0  0  0
 10 33  1  0  0  0  0
 11 34  1  0  0  0  0
 12 23  1  0  0  0  0
 12 32  1  0  0  0  0
 13 26  1  0  0  0  0
 13 33  1  0  0  0  0
 14 30  1  0  0  0  0
 14 35  1  0  0  0  0
 15 17  1  0  0  0  0
 15 23  1  0  0  0  0
 16 18  1  0  0  0  0
 16 23  1  0  0  0  0
 17 34  1  0  0  0  0
 18 34  1  0  0  0  0
 19 21  1  0  0  0  0
 19 35  1  0  0  0  0
 20 22  1  0  0  0  0
 20 35  1  0  0  0  0
 21 36  1  0  0  0  0
 22 36  1  0  0  0  0
 27 36  1  0  0  0  0
 28 31  2  0  0  0  0
 29 33  1  0  0  0  0
 31 32  1  0  0  0  0
  1 37  1  0  0  0  0
  2 38  1  0  0  0  0
  3 39  1  0  0  0  0
  4 40  1  0  0  0  0
  5 41  1  0  0  0  0
 15 42  1  0  0  0  0
 15 43  1  0  0  0  0
 16 44  1  0  0  0  0
 16 45  1  0  0  0  0
 17 46  1  0  0  0  0
 17 47  1  0  0  0  0
 18 48  1  0  0  0  0
 18 49  1  0  0  0  0
 19 50  1  0  0  0  0
 19 51  1  0  0  0  0
 20 52  1  0  0  0  0
 20 53  1  0  0  0  0
 21 54  1  0  0  0  0
 21 55  1  0  0  0  0
 22 56  1  0  0  0  0
 22 57  1  0  0  0  0
 23 58  1  0  0  0  0
 24 59  1  0  0  0  0
 24 60  1  0  0  0  0
 24 61  1  0  0  0  0
 25 62  1  0  0  0  0
 25 63  1  0  0  0  0
 25 64  1  0  0  0  0
 26 65  1  0  0  0  0
 26 66  1  0  0  0  0
 26 67  1  0  0  0  0
 27 68  1  0  0  0  0
 27 69  1  0  0  0  0
 27 70  1  0  0  0  0
 32 71  1  0  0  0  0
M  END
> <SMILES>
CN1CCN(CC1)c1cc(c2c(c(c(cc2n1)C)N1CCC(CC1)c1cnn[nH]1)C)-n1nccc1C

> <FORMATTED_ID>
H3D-005681

> <MOLFORMULA>
C27H35N9

> <Exact Mass>
485.3

> <XLogP>
3.41

> <TPSA_NOPS>
82

> <s_m_source_file>
ligprep_h3d.sdf

> <i_m_source_file_index>
859

> <i_lp_mmshare_version>
55123

> <i_f3d_flags>
0

> <s_epik_input>
W0NIM11jMVtjSF1bY0hdbm4xLWMyW2NIXWMoTihbQ0gyXVtDSDJdMylbQ0gyXVtDSDJdTjNbQ0gzXSluYyhjMjQpW2NIXWMoW0NIM10pYyhjNFtDSDNdKU41W0NIMl1bQ0gyXVtDSF0oW0NIMl1bQ0gyXTUpYzZbY0hdbm5bbkhdNg==

> <s_epik_cmdline>
J2VwaWtfcHl0aG9uJywgJy1waHQnLCAnMC41JywgJy1waCcsICc3LjUnLCAnLXRuJywgJzgnLCAnLW1hJywgJzUwMCcsICctaW1hZScsICc8aW5maWxlLm1hZT4nLCAnLW9tYWUnLCAnPG91dGZpbGUubWFlPic=

> <r_lp_tautomer_probability>
0.173826

> <r_epik_Ionization_Penalty>
0.7309

> <r_epik_Ionization_Penalty_Charging>
0

> <r_epik_Ionization_Penalty_Neutral>
0.7309

> <r_epik_State_Penalty>
0.41068

> <r_epik_Charging_Adjusted_Penalty>
0.41068

> <i_epik_Tot_Q>
0

> <i_epik_Tot_abs_Q>
0

> <s_lp_Force_Field>
S-OPLS

> <r_lp_Energy>
76.5029

> <b_lp_Chiralities_Consistent>
1

> <s_lp_Variant>
ligprep_h3d.sdf:859-1

> <ROCS_ShapeQuery>
_7L13

> <ROCS_TanimotoCombo>
0.708 

> <ROCS_ShapeTanimoto>
0.606 

> <ROCS_ColorTanimoto>
0.102 

> <ROCS_RefTversky>
0.760 

> <ROCS_RefColorTversky>
0.216 

> <ROCS_RefTverskyCombo>
0.976 

> <ROCS_FitTversky>
0.749 

> <ROCS_FitColorTversky>
0.162 

> <ROCS_FitTverskyCombo>
0.912 

> <ROCS_ColorScore>
-1.978

> <ROCS_Overlap>
1263.109

> <ROCS_Rank>
754                 

$$$$
ligprep_h3d.sdf:4838_1159
  -OEChem-08212117123D

 61 65  0     1  0  0  0  0  0999 V2000
  -22.5187   -6.7819  -33.4505 C   0  0  0  0  0  0  0  0  0  0  0  0
  -16.8306   -5.2536  -26.6877 C   0  0  0  0  0  0  0  0  0  0  0  0
  -18.0114   -4.2034  -24.8602 C   0  0  0  0  0  0  0  0  0  0  0  0
  -24.9366   -4.2107  -25.2623 C   0  0  0  0  0  0  0  0  0  0  0  0
  -23.4567   -5.2529  -23.6622 C   0  0  0  0  0  0  0  0  0  0  0  0
  -21.6716   -7.6043  -34.1932 C   0  0  0  0  0  0  0  0  0  0  0  0
  -15.7308   -5.4643  -25.8561 C   0  0  0  0  0  0  0  0  0  0  0  0
  -16.9116   -4.4141  -24.0285 C   0  0  0  0  0  0  0  0  0  0  0  0
  -25.8408   -3.9243  -24.2396 C   0  0  0  0  0  0  0  0  0  0  0  0
  -24.3609   -4.9665  -22.6394 C   0  0  0  0  0  0  0  0  0  0  0  0
  -20.8874   -5.0031  -33.5594 C   0  0  0  0  0  0  0  0  0  0  0  0
  -22.1267   -5.4813  -33.1336 C   0  0  0  0  0  0  0  0  0  0  0  0
  -17.9709   -4.6230  -26.1898 C   0  0  0  0  0  0  0  0  0  0  0  0
  -23.7446   -4.8750  -24.9737 C   0  0  0  0  0  0  0  0  0  0  0  0
  -20.4324   -7.1262  -34.6190 C   0  0  0  0  0  0  0  0  0  0  0  0
  -15.7713   -5.0446  -24.5265 C   0  0  0  0  0  0  0  0  0  0  0  0
  -25.5529   -4.3022  -22.9281 C   0  0  0  0  0  0  0  0  0  0  0  0
  -20.0403   -5.8255  -34.3021 C   0  0  0  0  0  0  0  0  0  0  0  0
  -22.2731   -3.6064  -31.4935 C   0  0  0  0  0  0  0  0  0  0  0  0
  -22.1754   -5.3666  -29.6688 C   0  0  0  0  0  0  0  0  0  0  0  0
  -19.3002   -4.7313  -28.3940 C   0  0  0  0  0  0  0  0  0  0  0  0
  -20.1998   -3.5460  -26.9050 C   0  0  0  0  0  0  0  0  0  0  0  0
  -21.1480   -3.1907  -29.3256 C   0  0  0  0  0  0  0  0  0  0  0  0
  -21.8228   -5.2487  -28.1870 C   0  0  1  0  0  0  0  0  0  0  0  0
  -20.7368   -4.1606  -28.2215 C   0  0  0  0  0  0  0  0  0  0  0  0
  -23.0374   -4.5986  -32.3332 C   0  0  0  0  0  0  0  0  0  0  0  0
  -23.0376   -4.8200  -27.3659 C   0  0  0  0  0  0  0  0  0  0  0  0
  -19.0763   -4.4111  -27.0258 N   0  0  0  0  0  0  0  0  0  0  0  0
  -21.9001   -4.0470  -30.2337 N   0  0  0  0  0  0  0  0  0  0  0  0
  -22.8391   -5.1619  -25.9979 N   0  0  0  0  0  0  0  0  0  0  0  0
  -22.0210   -2.4832  -31.9332 O   0  0  0  0  0  0  0  0  0  0  0  0
  -19.6065   -7.9299  -35.3432 O   0  0  0  0  0  0  0  0  0  0  0  0
  -14.7152   -5.2470  -23.7278 F   0  0  0  0  0  0  0  0  0  0  0  0
  -26.4212   -4.0272  -21.9459 F   0  0  0  0  0  0  0  0  0  0  0  0
  -18.8508   -5.3607  -34.7081 F   0  0  0  0  0  0  0  0  0  0  0  0
  -23.4819   -7.1634  -33.1219 H   0  0  0  0  0  0  0  0  0  0  0  0
  -16.7884   -5.5849  -27.7222 H   0  0  0  0  0  0  0  0  0  0  0  0
  -18.8947   -3.7108  -24.4619 H   0  0  0  0  0  0  0  0  0  0  0  0
  -25.1709   -3.9114  -26.2807 H   0  0  0  0  0  0  0  0  0  0  0  0
  -22.5309   -5.7713  -23.4260 H   0  0  0  0  0  0  0  0  0  0  0  0
  -21.9821   -8.6164  -34.4381 H   0  0  0  0  0  0  0  0  0  0  0  0
  -14.8430   -5.9553  -26.2433 H   0  0  0  0  0  0  0  0  0  0  0  0
  -16.9425   -4.0873  -22.9933 H   0  0  0  0  0  0  0  0  0  0  0  0
  -26.7689   -3.4069  -24.4639 H   0  0  0  0  0  0  0  0  0  0  0  0
  -24.1374   -5.2608  -21.6182 H   0  0  0  0  0  0  0  0  0  0  0  0
  -20.5731   -3.9917  -33.3161 H   0  0  0  0  0  0  0  0  0  0  0  0
  -21.5066   -6.0715  -30.1748 H   0  0  0  0  0  0  0  0  0  0  0  0
  -23.2079   -5.6695  -29.8633 H   0  0  0  0  0  0  0  0  0  0  0  0
  -19.2360   -5.8095  -28.5834 H   0  0  0  0  0  0  0  0  0  0  0  0
  -18.6325   -4.1971  -29.0766 H   0  0  0  0  0  0  0  0  0  0  0  0
  -19.9324   -2.4859  -26.9366 H   0  0  0  0  0  0  0  0  0  0  0  0
  -20.7920   -3.7592  -26.0078 H   0  0  0  0  0  0  0  0  0  0  0  0
  -21.8280   -2.4135  -28.9561 H   0  0  0  0  0  0  0  0  0  0  0  0
  -20.3068   -2.7151  -29.8422 H   0  0  0  0  0  0  0  0  0  0  0  0
  -21.4476   -6.2006  -27.7974 H   0  0  0  0  0  0  0  0  0  0  0  0
  -23.7077   -4.0491  -32.9964 H   0  0  0  0  0  0  0  0  0  0  0  0
  -23.6709   -5.1928  -31.6730 H   0  0  0  0  0  0  0  0  0  0  0  0
  -23.1407   -3.7426  -27.4814 H   0  0  0  0  0  0  0  0  0  0  0  0
  -23.9015   -5.3438  -27.7711 H   0  0  0  0  0  0  0  0  0  0  0  0
  -21.9825   -5.6519  -25.7270 H   0  0  0  0  0  0  0  0  0  0  0  0
  -20.0176   -8.7983  -35.4804 H   0  0  0  0  0  0  0  0  0  0  0  0
  1  6  1  0  0  0  0
  1 12  2  0  0  0  0
  2  7  1  0  0  0  0
  2 13  2  0  0  0  0
  3  8  2  0  0  0  0
  3 13  1  0  0  0  0
  4  9  1  0  0  0  0
  4 14  2  0  0  0  0
  5 10  2  0  0  0  0
  5 14  1  0  0  0  0
  6 15  2  0  0  0  0
  7 16  2  0  0  0  0
  8 16  1  0  0  0  0
  9 17  2  0  0  0  0
 10 17  1  0  0  0  0
 11 12  1  0  0  0  0
 11 18  2  0  0  0  0
 12 26  1  0  0  0  0
 13 28  1  0  0  0  0
 14 30  1  0  0  0  0
 15 18  1  0  0  0  0
 15 32  1  0  0  0  0
 16 33  1  0  0  0  0
 17 34  1  0  0  0  0
 18 35  1  0  0  0  0
 19 26  1  0  0  0  0
 19 29  1  0  0  0  0
 19 31  2  0  0  0  0
 20 24  1  0  0  0  0
 20 29  1  0  0  0  0
 21 25  1  0  0  0  0
 21 28  1  0  0  0  0
 22 25  1  0  0  0  0
 22 28  1  0  0  0  0
 23 25  1  0  0  0  0
 23 29  1  0  0  0  0
 24 25  1  0  0  0  0
 24 27  1  0  0  0  0
 27 30  1  0  0  0  0
  1 36  1  0  0  0  0
  2 37  1  0  0  0  0
  3 38  1  0  0  0  0
  4 39  1  0  0  0  0
  5 40  1  0  0  0  0
  6 41  1  0  0  0  0
  7 42  1  0  0  0  0
  8 43  1  0  0  0  0
  9 44  1  0  0  0  0
 10 45  1  0  0  0  0
 11 46  1  0  0  0  0
 20 47  1  0  0  0  0
 20 48  1  0  0  0  0
 21 49  1  0  0  0  0
 21 50  1  0  0  0  0
 22 51  1  0  0  0  0
 22 52  1  0  0  0  0
 23 53  1  0  0  0  0
 23 54  1  0  0  0  0
 24 55  1  0  0  0  0
 26 56  1  0  0  0  0
 26 57  1  0  0  0  0
 27 58  1  0  0  0  0
 27 59  1  0  0  0  0
 30 60  1  0  0  0  0
 32 61  1  0  0  0  0
M  END
> <SMILES>
Oc1ccc(cc1F)CC(=O)N1CC(CNc2ccc(cc2)F)C2(C1)CN(C2)c1ccc(cc1)F

> <FORMATTED_ID>
H3D-007498

> <MOLFORMULA>
C27H26F3N3O2

> <Exact Mass>
481.2

> <XLogP>
4.12

> <TPSA_NOPS>
55.8

> <s_m_source_file>
ligprep_h3d.sdf

> <i_m_source_file_index>
4838

> <i_lp_mmshare_version>
55123

> <i_f3d_flags>
0

> <s_epik_input>
W09IXWMxW2NIXVtjSF1jKFtjSF1jMUYpW0NIMl1DKD1PKU4oW0NIMl0yKVtDSDJdW0NASF0oW0NIMl1bTkhdYzNbY0hdW2NIXWMoRilbY0hdW2NIXTMpQzI0W0NIMl1OKFtDSDJdNCljNVtjSF1bY0hdYyhGKVtjSF1bY0hdNQ==

> <s_epik_cmdline>
J2VwaWtfcHl0aG9uJywgJy1waHQnLCAnMC41JywgJy1waCcsICc3LjUnLCAnLXRuJywgJzgnLCAnLW1hJywgJzUwMCcsICctaW1hZScsICc8aW5maWxlLm1hZT4nLCAnLW9tYWUnLCAnPG91dGZpbGUubWFlPic=

> <r_lp_tautomer_probability>
1

> <r_epik_Ionization_Penalty>
0.0700004

> <r_epik_Ionization_Penalty_Charging>
0

> <r_epik_Ionization_Penalty_Neutral>
0.0700004

> <r_epik_State_Penalty>
0.0583657

> <r_epik_Charging_Adjusted_Penalty>
0.0583657

> <i_epik_Tot_Q>
0

> <i_epik_Tot_abs_Q>
0

> <s_lp_Force_Field>
S-OPLS

> <r_lp_Energy>
45.5912

> <b_lp_Chiralities_Consistent>
1

> <s_lp_Variant>
ligprep_h3d.sdf:4838-1

> <ROCS_ShapeQuery>
_7L13

> <ROCS_TanimotoCombo>
0.691 

> <ROCS_ShapeTanimoto>
0.629 

> <ROCS_ColorTanimoto>
0.062 

> <ROCS_RefTversky>
0.760 

> <ROCS_RefColorTversky>
0.117 

> <ROCS_RefTverskyCombo>
0.877 

> <ROCS_FitTversky>
0.784 

> <ROCS_FitColorTversky>
0.117 

> <ROCS_FitTverskyCombo>
0.901 

> <ROCS_ColorScore>
-1.057

> <ROCS_Overlap>
1259.891

> <ROCS_Rank>
755                 

$$$$
ligprep_h3d.sdf:4792_1651
  -OEChem-08212117123D

 69 74  0     1  0  0  0  0  0999 V2000
  -15.8685   -5.5468  -25.4352 C   0  0  0  0  0  0  0  0  0  0  0  0
  -18.4384   -5.3079  -33.9713 C   0  0  0  0  0  0  0  0  0  0  0  0
  -18.7041   -6.5042  -34.6348 C   0  0  0  0  0  0  0  0  0  0  0  0
  -16.0331   -4.3469  -26.1271 C   0  0  0  0  0  0  0  0  0  0  0  0
  -16.9360   -6.4372  -25.3194 C   0  0  0  0  0  0  0  0  0  0  0  0
  -19.4281   -4.6762  -33.2094 C   0  0  0  0  0  0  0  0  0  0  0  0
  -19.9633   -7.1063  -34.5587 C   0  0  0  0  0  0  0  0  0  0  0  0
  -17.2651   -4.0373  -26.7031 C   0  0  0  0  0  0  0  0  0  0  0  0
  -18.1681   -6.1276  -25.8954 C   0  0  0  0  0  0  0  0  0  0  0  0
  -22.8444   -5.8862  -32.7346 C   0  0  0  0  0  0  0  0  0  0  0  0
  -20.7052   -5.2644  -33.1181 C   0  0  0  0  0  0  0  0  0  0  0  0
  -21.9137   -4.9124  -32.4544 C   0  0  0  0  0  0  0  0  0  0  0  0
  -20.9429   -6.4635  -33.7935 C   0  0  0  0  0  0  0  0  0  0  0  0
  -18.3327   -4.9276  -26.5873 C   0  0  0  0  0  0  0  0  0  0  0  0
  -24.6976   -4.8020  -25.1719 C   0  0  0  0  0  0  0  0  0  0  0  0
  -25.0979   -3.4678  -23.1156 C   0  0  0  0  0  0  0  0  0  0  0  0
  -24.9721   -5.9933  -23.0155 C   0  0  0  0  0  0  0  0  0  0  0  0
  -20.0082   -3.4862  -27.9126 C   0  0  0  0  0  0  0  0  0  0  0  0
  -20.8803   -5.1213  -26.9246 C   0  0  0  0  0  0  0  0  0  0  0  0
  -22.8215   -2.8262  -29.3362 C   0  0  0  0  0  0  0  0  0  0  0  0
  -21.5226   -4.8936  -29.4563 C   0  0  0  0  0  0  0  0  0  0  0  0
  -26.6056   -3.6197  -22.9434 C   0  0  0  0  0  0  0  0  0  0  0  0
  -26.4882   -5.9782  -22.8521 C   0  0  0  0  0  0  0  0  0  0  0  0
  -24.4431   -4.7251  -23.6753 C   0  0  0  0  0  0  0  0  0  0  0  0
  -22.5937   -3.3253  -27.9128 C   0  0  2  0  0  0  0  0  0  0  0  0
  -21.3671   -4.2218  -28.0881 C   0  0  0  0  0  0  0  0  0  0  0  0
  -22.1442   -3.6998  -31.6014 C   0  0  0  0  0  0  0  0  0  0  0  0
  -23.7925   -4.1107  -27.3822 C   0  0  0  0  0  0  0  0  0  0  0  0
  -22.2494   -6.8175  -33.5428 N   0  0  0  0  0  0  0  0  0  0  0  0
  -19.5710   -4.6169  -27.1662 N   0  0  0  0  0  0  0  0  0  0  0  0
  -23.7453   -4.1582  -25.9600 N   0  0  0  0  0  0  0  0  0  0  0  0
  -22.5341   -4.0362  -30.1985 N   0  3  2  0  0  0  0  0  0  0  0  0
  -25.6827   -5.4011  -25.5872 O   0  0  0  0  0  0  0  0  0  0  0  0
  -26.9152   -4.7899  -22.1899 O   0  0  0  0  0  0  0  0  0  0  0  0
  -14.9091   -5.7877  -24.9864 H   0  0  0  0  0  0  0  0  0  0  0  0
  -17.4514   -4.8593  -34.0451 H   0  0  0  0  0  0  0  0  0  0  0  0
  -17.9207   -6.9776  -35.2210 H   0  0  0  0  0  0  0  0  0  0  0  0
  -15.2020   -3.6539  -26.2170 H   0  0  0  0  0  0  0  0  0  0  0  0
  -16.8077   -7.3716  -24.7805 H   0  0  0  0  0  0  0  0  0  0  0  0
  -19.2049   -3.7445  -32.6975 H   0  0  0  0  0  0  0  0  0  0  0  0
  -20.1695   -8.0369  -35.0763 H   0  0  0  0  0  0  0  0  0  0  0  0
  -17.3830   -3.0996  -27.2400 H   0  0  0  0  0  0  0  0  0  0  0  0
  -18.9928   -6.8292  -25.7989 H   0  0  0  0  0  0  0  0  0  0  0  0
  -23.8757   -6.0016  -32.4310 H   0  0  0  0  0  0  0  0  0  0  0  0
  -24.8832   -2.5951  -23.7442 H   0  0  0  0  0  0  0  0  0  0  0  0
  -24.6633   -3.2684  -22.1268 H   0  0  0  0  0  0  0  0  0  0  0  0
  -24.5243   -6.0701  -22.0156 H   0  0  0  0  0  0  0  0  0  0  0  0
  -24.6688   -6.8862  -23.5753 H   0  0  0  0  0  0  0  0  0  0  0  0
  -19.4172   -3.3100  -28.8152 H   0  0  0  0  0  0  0  0  0  0  0  0
  -20.0353   -2.5749  -27.3047 H   0  0  0  0  0  0  0  0  0  0  0  0
  -21.2517   -4.8499  -25.9308 H   0  0  0  0  0  0  0  0  0  0  0  0
  -20.9603   -6.2007  -27.0764 H   0  0  0  0  0  0  0  0  0  0  0  0
  -23.8398   -2.4844  -29.5423 H   0  0  0  0  0  0  0  0  0  0  0  0
  -22.0946   -2.0515  -29.6053 H   0  0  0  0  0  0  0  0  0  0  0  0
  -20.5937   -4.9370  -30.0337 H   0  0  0  0  0  0  0  0  0  0  0  0
  -21.9646   -5.8924  -29.3827 H   0  0  0  0  0  0  0  0  0  0  0  0
  -27.0050   -2.7572  -22.4002 H   0  0  0  0  0  0  0  0  0  0  0  0
  -27.1175   -3.6621  -23.9119 H   0  0  0  0  0  0  0  0  0  0  0  0
  -27.0002   -6.0638  -23.8174 H   0  0  0  0  0  0  0  0  0  0  0  0
  -26.8019   -6.8309  -22.2412 H   0  0  0  0  0  0  0  0  0  0  0  0
  -23.3677   -4.6688  -23.5592 H   0  0  0  0  0  0  0  0  0  0  0  0
  -22.4004   -2.4848  -27.2371 H   0  0  0  0  0  0  0  0  0  0  0  0
  -21.2413   -3.0831  -31.5377 H   0  0  0  0  0  0  0  0  0  0  0  0
  -22.9464   -3.0757  -32.0098 H   0  0  0  0  0  0  0  0  0  0  0  0
  -24.6897   -3.5954  -27.7200 H   0  0  0  0  0  0  0  0  0  0  0  0
  -23.7320   -5.1129  -27.8024 H   0  0  0  0  0  0  0  0  0  0  0  0
  -22.7031   -7.6454  -33.9037 H   0  0  0  0  0  0  0  0  0  0  0  0
  -22.9641   -3.6909  -25.4874 H   0  0  0  0  0  0  0  0  0  0  0  0
  -23.4064   -4.5796  -30.2513 H   0  0  0  0  0  0  0  0  0  0  0  0
  1  4  2  0  0  0  0
  1  5  1  0  0  0  0
  2  3  1  0  0  0  0
  2  6  2  0  0  0  0
  3  7  2  0  0  0  0
  4  8  1  0  0  0  0
  5  9  2  0  0  0  0
  6 11  1  0  0  0  0
  7 13  1  0  0  0  0
  8 14  2  0  0  0  0
  9 14  1  0  0  0  0
 10 12  2  0  0  0  0
 10 29  1  0  0  0  0
 11 12  1  0  0  0  0
 11 13  2  0  0  0  0
 12 27  1  0  0  0  0
 13 29  1  0  0  0  0
 14 30  1  0  0  0  0
 15 24  1  0  0  0  0
 15 31  1  0  0  0  0
 15 33  2  0  0  0  0
 16 22  1  0  0  0  0
 16 24  1  0  0  0  0
 17 23  1  0  0  0  0
 17 24  1  0  0  0  0
 18 26  1  0  0  0  0
 18 30  1  0  0  0  0
 19 26  1  0  0  0  0
 19 30  1  0  0  0  0
 20 25  1  0  0  0  0
 20 32  1  0  0  0  0
 21 26  1  0  0  0  0
 21 32  1  0  0  0  0
 22 34  1  0  0  0  0
 23 34  1  0  0  0  0
 25 26  1  0  0  0  0
 25 28  1  0  0  0  0
 27 32  1  0  0  0  0
 28 31  1  0  0  0  0
  1 35  1  0  0  0  0
  2 36  1  0  0  0  0
  3 37  1  0  0  0  0
  4 38  1  0  0  0  0
  5 39  1  0  0  0  0
  6 40  1  0  0  0  0
  7 41  1  0  0  0  0
  8 42  1  0  0  0  0
  9 43  1  0  0  0  0
 10 44  1  0  0  0  0
 16 45  1  0  0  0  0
 16 46  1  0  0  0  0
 17 47  1  0  0  0  0
 17 48  1  0  0  0  0
 18 49  1  0  0  0  0
 18 50  1  0  0  0  0
 19 51  1  0  0  0  0
 19 52  1  0  0  0  0
 20 53  1  0  0  0  0
 20 54  1  0  0  0  0
 21 55  1  0  0  0  0
 21 56  1  0  0  0  0
 22 57  1  0  0  0  0
 22 58  1  0  0  0  0
 23 59  1  0  0  0  0
 23 60  1  0  0  0  0
 24 61  1  0  0  0  0
 25 62  1  0  0  0  0
 27 63  1  0  0  0  0
 27 64  1  0  0  0  0
 28 65  1  0  0  0  0
 28 66  1  0  0  0  0
 29 67  1  0  0  0  0
 31 68  1  0  0  0  0
 32 69  1  0  0  0  0
M  CHG  1  32   1
M  END
> <SMILES>
O=C(NCC1CN(Cc2c[nH]c3ccccc23)CC21CN(C2)c1ccccc1)C1CCOCC1

> <FORMATTED_ID>
H3D-007433

> <MOLFORMULA>
C28H34N4O2

> <Exact Mass>
458.27

> <XLogP>
3.56

> <TPSA_NOPS>
60.6

> <s_m_source_file>
ligprep_h3d.sdf

> <i_m_source_file_index>
4792

> <i_lp_mmshare_version>
55123

> <i_f3d_flags>
0

> <s_epik_input>
W2NIXTFbY0hdW2NIXVtjSF1bY0hdYzFOKFtDSDJdMilbQ0gyXUMyM1tDQEhdKFtDSDJdW05IXUMoPU8pW0NIXTRbQ0gyXVtDSDJdT1tDSDJdW0NIMl00KVtDSDJdTihbQ0gyXTMpW0NIMl1jKFtjSF1bbkhdNSljKGM1NilbY0hdW2NIXVtjSF1bY0hdNg==

> <s_epik_cmdline>
J2VwaWtfcHl0aG9uJywgJy1waHQnLCAnMC41JywgJy1waCcsICc3LjUnLCAnLXRuJywgJzgnLCAnLW1hJywgJzUwMCcsICctaW1hZScsICc8aW5maWxlLm1hZT4nLCAnLW9tYWUnLCAnPG91dGZpbGUubWFlPic=

> <r_epik_Ionization_Penalty>
0.0970804

> <r_epik_Ionization_Penalty_Charging>
0.0970602

> <r_epik_Ionization_Penalty_Neutral>
2.02217e-05

> <r_epik_State_Penalty>
0.0871907

> <r_epik_Charging_Adjusted_Penalty>
0.184251

> <i_epik_Tot_Q>
1

> <i_epik_Tot_abs_Q>
1

> <s_lp_Force_Field>
S-OPLS

> <r_lp_Energy>
34.7954

> <b_lp_Chiralities_Consistent>
1

> <s_lp_Variant>
ligprep_h3d.sdf:4792-1

> <ROCS_ShapeQuery>
_7L13

> <ROCS_TanimotoCombo>
0.711 

> <ROCS_ShapeTanimoto>
0.642 

> <ROCS_ColorTanimoto>
0.069 

> <ROCS_RefTversky>
0.760 

> <ROCS_RefColorTversky>
0.148 

> <ROCS_RefTverskyCombo>
0.908 

> <ROCS_FitTversky>
0.805 

> <ROCS_FitColorTversky>
0.114 

> <ROCS_FitTverskyCombo>
0.919 

> <ROCS_ColorScore>
-1.356

> <ROCS_Overlap>
1258.138

> <ROCS_Rank>
756                 

$$$$
ligprep_h3d.sdf:2667_1514
  -OEChem-08212117123D

 66 70  0     0  0  0  0  0  0999 V2000
  -18.0629   -8.5380  -37.4502 C   0  0  0  0  0  0  0  0  0  0  0  0
  -25.3834   -4.1481  -23.3530 C   0  0  0  0  0  0  0  0  0  0  0  0
  -24.6402   -5.3199  -23.1931 C   0  0  0  0  0  0  0  0  0  0  0  0
  -18.3022   -6.2993  -36.4955 C   0  0  0  0  0  0  0  0  0  0  0  0
  -19.8527   -8.0399  -35.8603 C   0  0  0  0  0  0  0  0  0  0  0  0
  -18.9683   -5.4015  -35.6614 C   0  0  0  0  0  0  0  0  0  0  0  0
  -20.5188   -7.1420  -35.0261 C   0  0  0  0  0  0  0  0  0  0  0  0
  -19.2980   -6.3407  -26.8039 C   0  0  0  0  0  0  0  0  0  0  0  0
  -20.1508   -4.4301  -25.5958 C   0  0  0  0  0  0  0  0  0  0  0  0
  -17.9930   -5.9330  -26.5274 C   0  0  0  0  0  0  0  0  0  0  0  0
  -18.8458   -4.0225  -25.3193 C   0  0  0  0  0  0  0  0  0  0  0  0
  -25.2110   -3.3324  -24.4784 C   0  0  0  0  0  0  0  0  0  0  0  0
  -23.7001   -5.7193  -24.1488 C   0  0  0  0  0  0  0  0  0  0  0  0
  -18.7444   -7.6185  -36.5950 C   0  0  0  0  0  0  0  0  0  0  0  0
  -20.0766   -5.8228  -34.9267 C   0  0  0  0  0  0  0  0  0  0  0  0
  -20.3769   -5.5891  -26.3381 C   0  0  0  0  0  0  0  0  0  0  0  0
  -17.7669   -4.7740  -25.7851 C   0  0  0  0  0  0  0  0  0  0  0  0
  -24.2706   -3.7183  -25.4485 C   0  0  0  0  0  0  0  0  0  0  0  0
  -23.5452   -4.8915  -25.2613 C   0  0  0  0  0  0  0  0  0  0  0  0
  -22.9930   -3.8831  -27.1514 C   0  0  0  0  0  0  0  0  0  0  0  0
  -23.8270   -3.9635  -30.2511 C   0  0  0  0  0  0  0  0  0  0  0  0
  -21.7424   -2.5463  -30.4148 C   0  0  0  0  0  0  0  0  0  0  0  0
  -23.1238   -5.0725  -31.0254 C   0  0  0  0  0  0  0  0  0  0  0  0
  -21.0513   -3.6701  -31.1776 C   0  0  0  0  0  0  0  0  0  0  0  0
  -22.8543   -3.0549  -29.4952 C   0  0  0  0  0  0  0  0  0  0  0  0
  -20.7926   -4.8568  -34.0276 C   0  0  0  0  0  0  0  0  0  0  0  0
  -21.7851   -6.0284  -26.6356 C   0  0  0  0  0  0  0  0  0  0  0  0
  -21.4423   -5.5110  -32.8125 C   0  0  0  0  0  0  0  0  0  0  0  0
  -16.3713   -4.3396  -25.4885 C   0  0  0  0  0  0  0  0  0  0  0  0
  -17.5094   -9.2848  -38.1449 N   0  0  0  0  0  0  0  0  0  0  0  0
  -23.9142   -3.1057  -26.6279 N   0  0  0  0  0  0  0  0  0  0  0  0
  -22.7360   -4.9718  -26.3655 N   0  0  0  0  0  0  0  0  0  0  0  0
  -22.3034   -3.7221  -28.3377 N   0  0  0  0  0  0  0  0  0  0  0  0
  -22.0827   -4.4694  -31.9366 N   0  3  0  0  0  0  0  0  0  0  0  0
  -15.4179   -5.1705  -26.0049 F   0  0  0  0  0  0  0  0  0  0  0  0
  -16.0681   -3.1015  -25.9792 F   0  0  0  0  0  0  0  0  0  0  0  0
  -16.1146   -4.2757  -24.1495 F   0  0  0  0  0  0  0  0  0  0  0  0
  -26.1068   -3.8643  -22.5928 H   0  0  0  0  0  0  0  0  0  0  0  0
  -24.7952   -5.9342  -22.3096 H   0  0  0  0  0  0  0  0  0  0  0  0
  -17.4410   -5.9554  -37.0635 H   0  0  0  0  0  0  0  0  0  0  0  0
  -20.2088   -9.0653  -35.9256 H   0  0  0  0  0  0  0  0  0  0  0  0
  -18.6173   -4.3754  -35.5909 H   0  0  0  0  0  0  0  0  0  0  0  0
  -21.3802   -7.4796  -34.4559 H   0  0  0  0  0  0  0  0  0  0  0  0
  -19.4648   -7.2450  -27.3833 H   0  0  0  0  0  0  0  0  0  0  0  0
  -20.9857   -3.8394  -25.2278 H   0  0  0  0  0  0  0  0  0  0  0  0
  -17.1588   -6.5258  -26.8930 H   0  0  0  0  0  0  0  0  0  0  0  0
  -18.6783   -3.1182  -24.7402 H   0  0  0  0  0  0  0  0  0  0  0  0
  -25.7931   -2.4238  -24.5936 H   0  0  0  0  0  0  0  0  0  0  0  0
  -23.1242   -6.6292  -24.0237 H   0  0  0  0  0  0  0  0  0  0  0  0
  -24.4054   -3.3516  -30.9559 H   0  0  0  0  0  0  0  0  0  0  0  0
  -24.5576   -4.4011  -29.5600 H   0  0  0  0  0  0  0  0  0  0  0  0
  -21.0004   -1.9785  -29.8403 H   0  0  0  0  0  0  0  0  0  0  0  0
  -22.1739   -1.8394  -31.1358 H   0  0  0  0  0  0  0  0  0  0  0  0
  -22.6169   -5.7822  -30.3624 H   0  0  0  0  0  0  0  0  0  0  0  0
  -23.8389   -5.6116  -31.6556 H   0  0  0  0  0  0  0  0  0  0  0  0
  -20.3506   -3.2584  -31.9116 H   0  0  0  0  0  0  0  0  0  0  0  0
  -20.5177   -4.3574  -30.5120 H   0  0  0  0  0  0  0  0  0  0  0  0
  -23.4235   -2.1728  -29.1234 H   0  0  0  0  0  0  0  0  0  0  0  0
  -20.0706   -4.1092  -33.6730 H   0  0  0  0  0  0  0  0  0  0  0  0
  -21.5454   -4.2942  -34.5950 H   0  0  0  0  0  0  0  0  0  0  0  0
  -21.8933   -6.3274  -27.6853 H   0  0  0  0  0  0  0  0  0  0  0  0
  -22.0633   -6.9018  -26.0333 H   0  0  0  0  0  0  0  0  0  0  0  0
  -20.6921   -6.0133  -32.1946 H   0  0  0  0  0  0  0  0  0  0  0  0
  -22.2260   -6.2251  -33.0830 H   0  0  0  0  0  0  0  0  0  0  0  0
  -21.3643   -4.0881  -28.4090 H   0  0  0  0  0  0  0  0  0  0  0  0
  -22.5695   -3.8187  -32.5685 H   0  0  0  0  0  0  0  0  0  0  0  0
  1 14  1  0  0  0  0
  1 30  3  0  0  0  0
  2  3  2  0  0  0  0
  2 12  1  0  0  0  0
  3 13  1  0  0  0  0
  4  6  1  0  0  0  0
  4 14  2  0  0  0  0
  5  7  2  0  0  0  0
  5 14  1  0  0  0  0
  6 15  2  0  0  0  0
  7 15  1  0  0  0  0
  8 10  1  0  0  0  0
  8 16  2  0  0  0  0
  9 11  2  0  0  0  0
  9 16  1  0  0  0  0
 10 17  2  0  0  0  0
 11 17  1  0  0  0  0
 12 18  2  0  0  0  0
 13 19  2  0  0  0  0
 15 26  1  0  0  0  0
 16 27  1  0  0  0  0
 17 29  1  0  0  0  0
 18 19  1  0  0  0  0
 18 31  1  0  0  0  0
 19 32  1  0  0  0  0
 20 31  2  0  0  0  0
 20 32  1  0  0  0  0
 20 33  1  0  0  0  0
 21 23  1  0  0  0  0
 21 25  1  0  0  0  0
 22 24  1  0  0  0  0
 22 25  1  0  0  0  0
 23 34  1  0  0  0  0
 24 34  1  0  0  0  0
 25 33  1  0  0  0  0
 26 28  1  0  0  0  0
 27 32  1  0  0  0  0
 28 34  1  0  0  0  0
 29 35  1  0  0  0  0
 29 36  1  0  0  0  0
 29 37  1  0  0  0  0
  2 38  1  0  0  0  0
  3 39  1  0  0  0  0
  4 40  1  0  0  0  0
  5 41  1  0  0  0  0
  6 42  1  0  0  0  0
  7 43  1  0  0  0  0
  8 44  1  0  0  0  0
  9 45  1  0  0  0  0
 10 46  1  0  0  0  0
 11 47  1  0  0  0  0
 12 48  1  0  0  0  0
 13 49  1  0  0  0  0
 21 50  1  0  0  0  0
 21 51  1  0  0  0  0
 22 52  1  0  0  0  0
 22 53  1  0  0  0  0
 23 54  1  0  0  0  0
 23 55  1  0  0  0  0
 24 56  1  0  0  0  0
 24 57  1  0  0  0  0
 25 58  1  0  0  0  0
 26 59  1  0  0  0  0
 26 60  1  0  0  0  0
 27 61  1  0  0  0  0
 27 62  1  0  0  0  0
 28 63  1  0  0  0  0
 28 64  1  0  0  0  0
 33 65  1  0  0  0  0
 34 66  1  0  0  0  0
M  CHG  1  34   1
M  END
> <SMILES>
FC(F)(F)c1ccc(cc1)Cn1c(nc2ccccc12)NC1CCN(CC1)CCc1ccc(cc1)C#N

> <FORMATTED_ID>
H3D-007530

> <MOLFORMULA>
C29H28F3N5

> <Exact Mass>
503.23

> <XLogP>
7.51

> <TPSA_NOPS>
56.9

> <s_m_source_file>
ligprep_h3d.sdf

> <i_m_source_file_index>
2667

> <i_lp_mmshare_version>
55123

> <i_f3d_flags>
0

> <s_epik_input>
RkMoRikoRiljMVtjSF1bY0hdYyhbY0hdW2NIXTEpW0NIMl1uKGMoYzIzKVtjSF1bY0hdW2NIXVtjSF0zKWMobjIpW05IXVtDSF00W0NIMl1bQ0gyXU4oW0NIMl1bQ0gyXTQpW0NIMl1bQ0gyXWM1W2NIXVtjSF1jKEMjTilbY0hdW2NIXTU=

> <s_epik_cmdline>
J2VwaWtfcHl0aG9uJywgJy1waHQnLCAnMC41JywgJy1waCcsICc3LjUnLCAnLXRuJywgJzgnLCAnLW1hJywgJzUwMCcsICctaW1hZScsICc8aW5maWxlLm1hZT4nLCAnLW9tYWUnLCAnPG91dGZpbGUubWFlPic=

> <r_lp_tautomer_probability>
1

> <r_epik_Ionization_Penalty>
0.198823

> <r_epik_Ionization_Penalty_Charging>
0.0145377

> <r_epik_Ionization_Penalty_Neutral>
0.184286

> <r_epik_State_Penalty>
-0

> <r_epik_Charging_Adjusted_Penalty>
0.0145377

> <i_epik_Tot_Q>
1

> <i_epik_Tot_abs_Q>
1

> <s_lp_Force_Field>
S-OPLS

> <r_lp_Energy>
44.159

> <b_lp_Chiralities_Consistent>
1

> <s_lp_Variant>
ligprep_h3d.sdf:2667-1

> <ROCS_ShapeQuery>
_7L13

> <ROCS_TanimotoCombo>
0.707 

> <ROCS_ShapeTanimoto>
0.604 

> <ROCS_ColorTanimoto>
0.103 

> <ROCS_RefTversky>
0.760 

> <ROCS_RefColorTversky>
0.196 

> <ROCS_RefTverskyCombo>
0.956 

> <ROCS_FitTversky>
0.747 

> <ROCS_FitColorTversky>
0.178 

> <ROCS_FitTverskyCombo>
0.925 

> <ROCS_ColorScore>
-1.776

> <ROCS_Overlap>
1263.157

> <ROCS_Rank>
757                 

$$$$
ligprep_h3d.sdf:4992_1506
  -OEChem-08212117123D

 60 64  0     1  0  0  0  0  0999 V2000
  -25.0539   -4.5888  -25.2777 C   0  0  0  0  0  0  0  0  0  0  0  0
  -23.3192   -4.8699  -23.6198 C   0  0  0  0  0  0  0  0  0  0  0  0
  -21.3927   -7.3868  -34.2003 C   0  0  0  0  0  0  0  0  0  0  0  0
  -25.9760   -4.3175  -24.2669 C   0  0  0  0  0  0  0  0  0  0  0  0
  -24.2412   -4.5986  -22.6089 C   0  0  0  0  0  0  0  0  0  0  0  0
  -22.3031   -6.6384  -33.4603 C   0  0  0  0  0  0  0  0  0  0  0  0
  -16.7821   -5.2243  -26.5496 C   0  0  0  0  0  0  0  0  0  0  0  0
  -17.9948   -4.2009  -24.7279 C   0  0  0  0  0  0  0  0  0  0  0  0
  -15.7616   -5.0491  -24.3668 C   0  0  0  0  0  0  0  0  0  0  0  0
  -19.8803   -5.5339  -34.1615 C   0  0  0  0  0  0  0  0  0  0  0  0
  -17.9307   -4.6005  -26.0627 C   0  0  0  0  0  0  0  0  0  0  0  0
  -23.7255   -4.8650  -24.9541 C   0  0  0  0  0  0  0  0  0  0  0  0
  -20.1671   -6.8327  -34.5570 C   0  0  0  0  0  0  0  0  0  0  0  0
  -25.5697   -4.3224  -22.9325 C   0  0  0  0  0  0  0  0  0  0  0  0
  -15.6975   -5.4487  -25.7016 C   0  0  0  0  0  0  0  0  0  0  0  0
  -16.9102   -4.4252  -23.8798 C   0  0  0  0  0  0  0  0  0  0  0  0
  -21.9623   -5.3446  -33.0924 C   0  0  0  0  0  0  0  0  0  0  0  0
  -22.1365   -3.4956  -31.4258 C   0  0  0  0  0  0  0  0  0  0  0  0
  -22.0729   -5.2844  -29.6277 C   0  0  0  0  0  0  0  0  0  0  0  0
  -19.2205   -4.6726  -28.2918 C   0  0  0  0  0  0  0  0  0  0  0  0
  -20.1456   -3.5098  -26.8006 C   0  0  0  0  0  0  0  0  0  0  0  0
  -21.0499   -3.1153  -29.2319 C   0  0  0  0  0  0  0  0  0  0  0  0
  -21.7468   -5.1902  -28.1381 C   0  0  1  0  0  0  0  0  0  0  0  0
  -20.6595   -4.1030  -28.1360 C   0  0  0  0  0  0  0  0  0  0  0  0
  -22.8864   -4.4735  -32.2946 C   0  0  0  0  0  0  0  0  0  0  0  0
  -22.9757   -4.7732  -27.3322 C   0  0  0  0  0  0  0  0  0  0  0  0
  -20.7752   -4.8356  -33.4493 N   0  3  0  0  0  0  0  0  0  0  0  0
  -19.0208   -4.3742  -26.9149 N   0  0  0  0  0  0  0  0  0  0  0  0
  -21.7864   -3.9564  -30.1666 N   0  0  0  0  0  0  0  0  0  0  0  0
  -22.8021   -5.1367  -25.9664 N   0  0  0  0  0  0  0  0  0  0  0  0
  -19.3181   -7.5069  -35.2373 O   0  5  0  0  0  0  0  0  0  0  0  0
  -21.8755   -2.3659  -31.8432 O   0  0  0  0  0  0  0  0  0  0  0  0
  -26.4552   -4.0619  -21.9618 F   0  0  0  0  0  0  0  0  0  0  0  0
  -14.5940   -6.0462  -26.1701 F   0  0  0  0  0  0  0  0  0  0  0  0
  -16.9710   -4.0397  -22.5985 F   0  0  0  0  0  0  0  0  0  0  0  0
  -25.3813   -4.5820  -26.3142 H   0  0  0  0  0  0  0  0  0  0  0  0
  -22.2865   -5.0842  -23.3563 H   0  0  0  0  0  0  0  0  0  0  0  0
  -21.6638   -8.4014  -34.4878 H   0  0  0  0  0  0  0  0  0  0  0  0
  -27.0103   -4.1022  -24.5184 H   0  0  0  0  0  0  0  0  0  0  0  0
  -23.9255   -4.6026  -21.5699 H   0  0  0  0  0  0  0  0  0  0  0  0
  -23.2603   -7.0661  -33.1793 H   0  0  0  0  0  0  0  0  0  0  0  0
  -16.7213   -5.5389  -27.5881 H   0  0  0  0  0  0  0  0  0  0  0  0
  -18.8846   -3.7130  -24.3383 H   0  0  0  0  0  0  0  0  0  0  0  0
  -14.9162   -5.2228  -23.7075 H   0  0  0  0  0  0  0  0  0  0  0  0
  -18.9621   -5.0048  -34.3842 H   0  0  0  0  0  0  0  0  0  0  0  0
  -21.3958   -5.9820  -30.1326 H   0  0  0  0  0  0  0  0  0  0  0  0
  -23.1021   -5.5830  -29.8453 H   0  0  0  0  0  0  0  0  0  0  0  0
  -19.1538   -5.7476  -28.4969 H   0  0  0  0  0  0  0  0  0  0  0  0
  -18.5402   -4.1284  -28.9538 H   0  0  0  0  0  0  0  0  0  0  0  0
  -19.8767   -2.4496  -26.8107 H   0  0  0  0  0  0  0  0  0  0  0  0
  -20.7539   -3.7364  -25.9176 H   0  0  0  0  0  0  0  0  0  0  0  0
  -21.7358   -2.3432  -28.8624 H   0  0  0  0  0  0  0  0  0  0  0  0
  -20.1993   -2.6327  -29.7258 H   0  0  0  0  0  0  0  0  0  0  0  0
  -21.3795   -6.1485  -27.7568 H   0  0  0  0  0  0  0  0  0  0  0  0
  -23.5443   -3.9129  -32.9609 H   0  0  0  0  0  0  0  0  0  0  0  0
  -23.5321   -5.0774  -31.6552 H   0  0  0  0  0  0  0  0  0  0  0  0
  -23.0758   -3.6939  -27.4325 H   0  0  0  0  0  0  0  0  0  0  0  0
  -23.8327   -5.2895  -27.7610 H   0  0  0  0  0  0  0  0  0  0  0  0
  -20.5396   -3.8835  -33.1698 H   0  0  0  0  0  0  0  0  0  0  0  0
  -21.9509   -5.6319  -25.6880 H   0  0  0  0  0  0  0  0  0  0  0  0
  1  4  1  0  0  0  0
  1 12  2  0  0  0  0
  2  5  2  0  0  0  0
  2 12  1  0  0  0  0
  3  6  2  0  0  0  0
  3 13  1  0  0  0  0
  4 14  2  0  0  0  0
  5 14  1  0  0  0  0
  6 17  1  0  0  0  0
  7 11  2  0  0  0  0
  7 15  1  0  0  0  0
  8 11  1  0  0  0  0
  8 16  2  0  0  0  0
  9 15  2  0  0  0  0
  9 16  1  0  0  0  0
 10 13  2  0  0  0  0
 10 27  1  0  0  0  0
 11 28  1  0  0  0  0
 12 30  1  0  0  0  0
 13 31  1  0  0  0  0
 14 33  1  0  0  0  0
 15 34  1  0  0  0  0
 16 35  1  0  0  0  0
 17 25  1  0  0  0  0
 17 27  2  0  0  0  0
 18 25  1  0  0  0  0
 18 29  1  0  0  0  0
 18 32  2  0  0  0  0
 19 23  1  0  0  0  0
 19 29  1  0  0  0  0
 20 24  1  0  0  0  0
 20 28  1  0  0  0  0
 21 24  1  0  0  0  0
 21 28  1  0  0  0  0
 22 24  1  0  0  0  0
 22 29  1  0  0  0  0
 23 24  1  0  0  0  0
 23 26  1  0  0  0  0
 26 30  1  0  0  0  0
  1 36  1  0  0  0  0
  2 37  1  0  0  0  0
  3 38  1  0  0  0  0
  4 39  1  0  0  0  0
  5 40  1  0  0  0  0
  6 41  1  0  0  0  0
  7 42  1  0  0  0  0
  8 43  1  0  0  0  0
  9 44  1  0  0  0  0
 10 45  1  0  0  0  0
 19 46  1  0  0  0  0
 19 47  1  0  0  0  0
 20 48  1  0  0  0  0
 20 49  1  0  0  0  0
 21 50  1  0  0  0  0
 21 51  1  0  0  0  0
 22 52  1  0  0  0  0
 22 53  1  0  0  0  0
 23 54  1  0  0  0  0
 25 55  1  0  0  0  0
 25 56  1  0  0  0  0
 26 57  1  0  0  0  0
 26 58  1  0  0  0  0
 27 59  1  0  0  0  0
 30 60  1  0  0  0  0
M  CHG  2  27   1  31  -1
M  END
> <SMILES>
Oc1ccc(nc1)CC(=O)N1CC(CNc2ccc(cc2)F)C2(C1)CN(C2)c1cc(cc(c1)F)F

> <FORMATTED_ID>
H3D-008765

> <MOLFORMULA>
C26H25F3N4O2

> <Exact Mass>
482.19

> <XLogP>
2.73

> <TPSA_NOPS>
68.7

> <s_m_source_file>
ligprep_h3d.sdf

> <i_m_source_file_index>
4992

> <i_lp_mmshare_version>
55123

> <i_f3d_flags>
0

> <s_epik_input>
W09IXWMxW2NIXVtjSF1jKG5bY0hdMSlbQ0gyXUMoPU8pTihbQ0gyXTIpW0NIMl1bQ0BIXShbQ0gyXVtOSF1jM1tjSF1bY0hdYyhGKVtjSF1bY0hdMylDMjRbQ0gyXU4oW0NIMl00KWM1W2NIXWMoRilbY0hdYyhGKVtjSF01

> <s_epik_cmdline>
J2VwaWtfcHl0aG9uJywgJy1waHQnLCAnMC41JywgJy1waCcsICc3LjUnLCAnLXRuJywgJzgnLCAnLW1hJywgJzUwMCcsICctaW1hZScsICc8aW5maWxlLm1hZT4nLCAnLW9tYWUnLCAnPG91dGZpbGUubWFlPic=

> <r_lp_tautomer_probability>
0.56342

> <r_epik_Ionization_Penalty>
0.0418802

> <r_epik_Ionization_Penalty_Charging>
0.0394926

> <r_epik_Ionization_Penalty_Neutral>
0.00238759

> <r_epik_State_Penalty>
0.335803

> <r_epik_Charging_Adjusted_Penalty>
0.375296

> <i_epik_Tot_Q>
0

> <i_epik_Tot_abs_Q>
2

> <s_lp_Force_Field>
S-OPLS

> <r_lp_Energy>
32.7476

> <b_lp_Chiralities_Consistent>
1

> <s_lp_Variant>
ligprep_h3d.sdf:4992-1

> <ROCS_ShapeQuery>
_7L13

> <ROCS_TanimotoCombo>
0.682 

> <ROCS_ShapeTanimoto>
0.627 

> <ROCS_ColorTanimoto>
0.055 

> <ROCS_RefTversky>
0.760 

> <ROCS_RefColorTversky>
0.116 

> <ROCS_RefTverskyCombo>
0.875 

> <ROCS_FitTversky>
0.781 

> <ROCS_FitColorTversky>
0.096 

> <ROCS_FitTverskyCombo>
0.878 

> <ROCS_ColorScore>
-1.051

> <ROCS_Overlap>
1259.981

> <ROCS_Rank>
758                 

$$$$
ligprep_h3d.sdf:4699_1555
  -OEChem-08212117123D

 61 65  0     1  0  0  0  0  0999 V2000
  -24.9770   -5.0106  -22.5420 C   0  0  0  0  0  0  0  0  0  0  0  0
  -23.7592   -4.3965  -22.8344 C   0  0  0  0  0  0  0  0  0  0  0  0
  -25.9395   -5.1614  -23.5402 C   0  0  0  0  0  0  0  0  0  0  0  0
  -19.4702   -5.6587  -32.6823 C   0  0  0  0  0  0  0  0  0  0  0  0
  -21.2303   -4.9720  -34.1882 C   0  0  0  0  0  0  0  0  0  0  0  0
  -17.1387   -6.3726  -26.1200 C   0  0  0  0  0  0  0  0  0  0  0  0
  -23.5039   -3.9333  -24.1251 C   0  0  0  0  0  0  0  0  0  0  0  0
  -25.6842   -4.6981  -24.8309 C   0  0  0  0  0  0  0  0  0  0  0  0
  -18.9850   -6.5379  -33.6503 C   0  0  0  0  0  0  0  0  0  0  0  0
  -20.7450   -5.8512  -35.1563 C   0  0  0  0  0  0  0  0  0  0  0  0
  -15.8796   -6.6020  -25.5655 C   0  0  0  0  0  0  0  0  0  0  0  0
  -15.6715   -4.2478  -25.0639 C   0  0  0  0  0  0  0  0  0  0  0  0
  -20.5930   -4.8758  -32.9512 C   0  0  0  0  0  0  0  0  0  0  0  0
  -17.6643   -5.0807  -26.1465 C   0  0  0  0  0  0  0  0  0  0  0  0
  -24.4664   -4.0841  -25.1234 C   0  0  0  0  0  0  0  0  0  0  0  0
  -19.6223   -6.6342  -34.8873 C   0  0  0  0  0  0  0  0  0  0  0  0
  -15.1460   -5.5396  -25.0374 C   0  0  0  0  0  0  0  0  0  0  0  0
  -16.9306   -4.0183  -25.6185 C   0  0  0  0  0  0  0  0  0  0  0  0
  -22.1369   -4.5804  -31.0131 C   0  0  0  0  0  0  0  0  0  0  0  0
  -22.7341   -5.1734  -28.6800 C   0  0  0  0  0  0  0  0  0  0  0  0
  -19.8733   -5.7369  -27.3008 C   0  0  0  0  0  0  0  0  0  0  0  0
  -19.8422   -3.7681  -26.5668 C   0  0  0  0  0  0  0  0  0  0  0  0
  -20.6364   -4.0043  -29.0532 C   0  0  0  0  0  0  0  0  0  0  0  0
  -22.2386   -4.6757  -27.3260 C   0  0  1  0  0  0  0  0  0  0  0  0
  -20.7439   -4.4844  -27.6020 C   0  0  0  0  0  0  0  0  0  0  0  0
  -21.1145   -3.9300  -31.9107 C   0  0  0  0  0  0  0  0  0  0  0  0
  -22.9108   -3.3609  -26.9351 C   0  0  0  0  0  0  0  0  0  0  0  0
  -18.9299   -4.8528  -26.7045 N   0  0  0  0  0  0  0  0  0  0  0  0
  -21.8374   -4.5737  -29.6601 N   0  0  0  0  0  0  0  0  0  0  0  0
  -24.2111   -3.6204  -26.4160 N   0  0  0  0  0  0  0  0  0  0  0  0
  -23.1572   -5.0790  -31.4912 O   0  0  0  0  0  0  0  0  0  0  0  0
  -19.1479   -7.4912  -35.8323 O   0  0  0  0  0  0  0  0  0  0  0  0
  -13.9368   -5.7600  -24.5049 F   0  0  0  0  0  0  0  0  0  0  0  0
  -17.4260   -2.7728  -25.6387 F   0  0  0  0  0  0  0  0  0  0  0  0
  -25.1758   -5.3711  -21.5368 H   0  0  0  0  0  0  0  0  0  0  0  0
  -23.0101   -4.2791  -22.0572 H   0  0  0  0  0  0  0  0  0  0  0  0
  -26.8878   -5.6396  -23.3123 H   0  0  0  0  0  0  0  0  0  0  0  0
  -18.9675   -5.5903  -31.7213 H   0  0  0  0  0  0  0  0  0  0  0  0
  -22.1058   -4.3659  -34.4065 H   0  0  0  0  0  0  0  0  0  0  0  0
  -17.7018   -7.2078  -26.5286 H   0  0  0  0  0  0  0  0  0  0  0  0
  -22.5519   -3.4561  -24.3426 H   0  0  0  0  0  0  0  0  0  0  0  0
  -26.4417   -4.8214  -25.6008 H   0  0  0  0  0  0  0  0  0  0  0  0
  -18.1097   -7.1451  -33.4350 H   0  0  0  0  0  0  0  0  0  0  0  0
  -21.2456   -5.9213  -36.1179 H   0  0  0  0  0  0  0  0  0  0  0  0
  -15.4700   -7.6076  -25.5446 H   0  0  0  0  0  0  0  0  0  0  0  0
  -15.1002   -3.4208  -24.6528 H   0  0  0  0  0  0  0  0  0  0  0  0
  -22.6144   -6.2599  -28.7650 H   0  0  0  0  0  0  0  0  0  0  0  0
  -23.7778   -4.9250  -28.8968 H   0  0  0  0  0  0  0  0  0  0  0  0
  -20.2922   -6.4449  -26.5772 H   0  0  0  0  0  0  0  0  0  0  0  0
  -19.4709   -6.2801  -28.1600 H   0  0  0  0  0  0  0  0  0  0  0  0
  -19.4185   -2.8082  -26.8723 H   0  0  0  0  0  0  0  0  0  0  0  0
  -20.2505   -3.6972  -25.5532 H   0  0  0  0  0  0  0  0  0  0  0  0
  -20.7072   -2.9141  -29.1282 H   0  0  0  0  0  0  0  0  0  0  0  0
  -19.7362   -4.3461  -29.5718 H   0  0  0  0  0  0  0  0  0  0  0  0
  -22.4269   -5.4168  -26.5413 H   0  0  0  0  0  0  0  0  0  0  0  0
  -20.2943   -3.5605  -31.2927 H   0  0  0  0  0  0  0  0  0  0  0  0
  -21.5717   -3.0556  -32.3765 H   0  0  0  0  0  0  0  0  0  0  0  0
  -22.2831   -2.8898  -26.1808 H   0  0  0  0  0  0  0  0  0  0  0  0
  -22.9711   -2.7501  -27.8342 H   0  0  0  0  0  0  0  0  0  0  0  0
  -25.0261   -3.4615  -27.0142 H   0  0  0  0  0  0  0  0  0  0  0  0
  -19.6940   -7.4447  -36.6332 H   0  0  0  0  0  0  0  0  0  0  0  0
  1  2  2  0  0  0  0
  1  3  1  0  0  0  0
  2  7  1  0  0  0  0
  3  8  2  0  0  0  0
  4  9  1  0  0  0  0
  4 13  2  0  0  0  0
  5 10  2  0  0  0  0
  5 13  1  0  0  0  0
  6 11  1  0  0  0  0
  6 14  2  0  0  0  0
  7 15  2  0  0  0  0
  8 15  1  0  0  0  0
  9 16  2  0  0  0  0
 10 16  1  0  0  0  0
 11 17  2  0  0  0  0
 12 17  1  0  0  0  0
 12 18  2  0  0  0  0
 13 26  1  0  0  0  0
 14 18  1  0  0  0  0
 14 28  1  0  0  0  0
 15 30  1  0  0  0  0
 16 32  1  0  0  0  0
 17 33  1  0  0  0  0
 18 34  1  0  0  0  0
 19 26  1  0  0  0  0
 19 29  1  0  0  0  0
 19 31  2  0  0  0  0
 20 24  1  0  0  0  0
 20 29  1  0  0  0  0
 21 25  1  0  0  0  0
 21 28  1  0  0  0  0
 22 25  1  0  0  0  0
 22 28  1  0  0  0  0
 23 25  1  0  0  0  0
 23 29  1  0  0  0  0
 24 25  1  0  0  0  0
 24 27  1  0  0  0  0
 27 30  1  0  0  0  0
  1 35  1  0  0  0  0
  2 36  1  0  0  0  0
  3 37  1  0  0  0  0
  4 38  1  0  0  0  0
  5 39  1  0  0  0  0
  6 40  1  0  0  0  0
  7 41  1  0  0  0  0
  8 42  1  0  0  0  0
  9 43  1  0  0  0  0
 10 44  1  0  0  0  0
 11 45  1  0  0  0  0
 12 46  1  0  0  0  0
 20 47  1  0  0  0  0
 20 48  1  0  0  0  0
 21 49  1  0  0  0  0
 21 50  1  0  0  0  0
 22 51  1  0  0  0  0
 22 52  1  0  0  0  0
 23 53  1  0  0  0  0
 23 54  1  0  0  0  0
 24 55  1  0  0  0  0
 26 56  1  0  0  0  0
 26 57  1  0  0  0  0
 27 58  1  0  0  0  0
 27 59  1  0  0  0  0
 30 60  1  0  0  0  0
 32 61  1  0  0  0  0
M  END
> <SMILES>
Oc1ccc(cc1)CC(=O)N1CC(CNc2ccccc2)C2(C1)CN(C2)c1ccc(cc1F)F

> <FORMATTED_ID>
H3D-006189

> <MOLFORMULA>
C27H27F2N3O2

> <Exact Mass>
463.21

> <XLogP>
4.02

> <TPSA_NOPS>
55.8

> <s_m_source_file>
ligprep_h3d.sdf

> <i_m_source_file_index>
4699

> <i_lp_mmshare_version>
55123

> <i_f3d_flags>
0

> <s_epik_input>
W09IXWMxW2NIXVtjSF1jKFtjSF1bY0hdMSlbQ0gyXUMoPU8pTihbQ0gyXTIpW0NIMl1bQ0BIXShbQ0gyXVtOSF1jM1tjSF1bY0hdW2NIXVtjSF1bY0hdMylDMjRbQ0gyXU4oW0NIMl00KWM1W2NIXVtjSF1jKEYpW2NIXWM1Rg==

> <s_epik_cmdline>
J2VwaWtfcHl0aG9uJywgJy1waHQnLCAnMC41JywgJy1waCcsICc3LjUnLCAnLXRuJywgJzgnLCAnLW1hJywgJzUwMCcsICctaW1hZScsICc8aW5maWxlLm1hZT4nLCAnLW9tYWUnLCAnPG91dGZpbGUubWFlPic=

> <r_lp_tautomer_probability>
1

> <r_epik_Ionization_Penalty>
0.00485517

> <r_epik_Ionization_Penalty_Charging>
0

> <r_epik_Ionization_Penalty_Neutral>
0.00485517

> <r_epik_State_Penalty>
-0

> <r_epik_Charging_Adjusted_Penalty>
0

> <i_epik_Tot_Q>
0

> <i_epik_Tot_abs_Q>
0

> <s_lp_Force_Field>
S-OPLS

> <r_lp_Energy>
40.3445

> <b_lp_Chiralities_Consistent>
1

> <s_lp_Variant>
ligprep_h3d.sdf:4699-1

> <ROCS_ShapeQuery>
_7L13

> <ROCS_TanimotoCombo>
0.708 

> <ROCS_ShapeTanimoto>
0.641 

> <ROCS_ColorTanimoto>
0.066 

> <ROCS_RefTversky>
0.760 

> <ROCS_RefColorTversky>
0.124 

> <ROCS_RefTverskyCombo>
0.884 

> <ROCS_FitTversky>
0.804 

> <ROCS_FitColorTversky>
0.124 

> <ROCS_FitTverskyCombo>
0.929 

> <ROCS_ColorScore>
-1.119

> <ROCS_Overlap>
1257.733

> <ROCS_Rank>
759                 

$$$$
ligprep_h3d.sdf:4839_1951
  -OEChem-08212117123D

 67 71  0     1  0  0  0  0  0999 V2000
  -16.7375   -6.1002  -25.8305 C   0  0  0  0  0  0  0  0  0  0  0  0
  -16.8282   -3.7245  -25.4001 C   0  0  0  0  0  0  0  0  0  0  0  0
  -24.7595   -4.8341  -25.2411 C   0  0  0  0  0  0  0  0  0  0  0  0
  -23.6236   -3.7457  -23.4075 C   0  0  0  0  0  0  0  0  0  0  0  0
  -15.4946   -6.1668  -25.2009 C   0  0  0  0  0  0  0  0  0  0  0  0
  -15.5853   -3.7911  -24.7705 C   0  0  0  0  0  0  0  0  0  0  0  0
  -25.7158   -5.3293  -24.3547 C   0  0  0  0  0  0  0  0  0  0  0  0
  -24.5800   -4.2409  -22.5211 C   0  0  0  0  0  0  0  0  0  0  0  0
  -17.4043   -4.8790  -25.9301 C   0  0  0  0  0  0  0  0  0  0  0  0
  -23.7133   -4.0423  -24.7675 C   0  0  0  0  0  0  0  0  0  0  0  0
  -14.9185   -5.0123  -24.6709 C   0  0  0  0  0  0  0  0  0  0  0  0
  -25.6261   -5.0327  -22.9947 C   0  0  0  0  0  0  0  0  0  0  0  0
  -21.6179   -5.0245  -31.0451 C   0  0  0  0  0  0  0  0  0  0  0  0
  -19.4865   -6.8548  -34.4999 C   0  0  0  0  0  0  0  0  0  0  0  0
  -19.8496   -4.6388  -35.6342 C   0  0  0  0  0  0  0  0  0  0  0  0
  -22.2778   -5.6177  -28.7289 C   0  0  0  0  0  0  0  0  0  0  0  0
  -19.4558   -5.8138  -27.1793 C   0  0  0  0  0  0  0  0  0  0  0  0
  -19.6880   -3.8351  -26.5112 C   0  0  0  0  0  0  0  0  0  0  0  0
  -20.3066   -4.2280  -29.0275 C   0  0  0  0  0  0  0  0  0  0  0  0
  -19.5540   -6.1689  -33.1444 C   0  0  0  0  0  0  0  0  0  0  0  0
  -19.9164   -3.9581  -34.2760 C   0  0  0  0  0  0  0  0  0  0  0  0
  -21.9199   -5.0301  -27.3677 C   0  0  1  0  0  0  0  0  0  0  0  0
  -18.9986   -5.9055  -35.5903 C   0  0  0  0  0  0  0  0  0  0  0  0
  -20.4427   -4.6773  -27.5689 C   0  0  0  0  0  0  0  0  0  0  0  0
  -20.6251   -4.2866  -31.9075 C   0  0  0  0  0  0  0  0  0  0  0  0
  -22.7567   -3.7902  -27.0581 C   0  0  0  0  0  0  0  0  0  0  0  0
  -18.6534   -4.8121  -26.5629 N   0  0  0  0  0  0  0  0  0  0  0  0
  -21.3992   -4.9468  -29.6789 N   0  0  0  0  0  0  0  0  0  0  0  0
  -22.7556   -3.5464  -25.6552 N   0  0  0  0  0  0  0  0  0  0  0  0
  -20.4270   -4.9401  -33.2476 N   0  3  0  0  0  0  0  0  0  0  0  0
  -22.5467   -5.6490  -31.5605 O   0  0  0  0  0  0  0  0  0  0  0  0
  -19.0679   -6.5752  -36.8439 O   0  0  0  0  0  0  0  0  0  0  0  0
  -13.7249   -5.0762  -24.0663 F   0  0  0  0  0  0  0  0  0  0  0  0
  -26.5445   -5.5083  -22.1434 F   0  0  0  0  0  0  0  0  0  0  0  0
  -17.1774   -7.0060  -26.2397 H   0  0  0  0  0  0  0  0  0  0  0  0
  -17.3389   -2.7677  -25.4724 H   0  0  0  0  0  0  0  0  0  0  0  0
  -24.8392   -5.0712  -26.2989 H   0  0  0  0  0  0  0  0  0  0  0  0
  -22.8124   -3.1298  -23.0276 H   0  0  0  0  0  0  0  0  0  0  0  0
  -14.9753   -7.1173  -25.1230 H   0  0  0  0  0  0  0  0  0  0  0  0
  -15.1362   -2.8926  -24.3579 H   0  0  0  0  0  0  0  0  0  0  0  0
  -26.5306   -5.9457  -24.7231 H   0  0  0  0  0  0  0  0  0  0  0  0
  -24.5104   -4.0105  -21.4621 H   0  0  0  0  0  0  0  0  0  0  0  0
  -18.8195   -7.7238  -34.4446 H   0  0  0  0  0  0  0  0  0  0  0  0
  -20.4718   -7.2583  -34.7686 H   0  0  0  0  0  0  0  0  0  0  0  0
  -20.8612   -4.8818  -35.9851 H   0  0  0  0  0  0  0  0  0  0  0  0
  -19.4399   -3.9452  -36.3781 H   0  0  0  0  0  0  0  0  0  0  0  0
  -22.0323   -6.6855  -28.7707 H   0  0  0  0  0  0  0  0  0  0  0  0
  -23.3287   -5.4959  -29.0100 H   0  0  0  0  0  0  0  0  0  0  0  0
  -19.8335   -6.5450  -26.4558 H   0  0  0  0  0  0  0  0  0  0  0  0
  -18.9464   -6.3310  -27.9967 H   0  0  0  0  0  0  0  0  0  0  0  0
  -19.3579   -2.8418  -26.8255 H   0  0  0  0  0  0  0  0  0  0  0  0
  -20.1592   -3.7834  -25.5240 H   0  0  0  0  0  0  0  0  0  0  0  0
  -20.4949   -3.1554  -29.1428 H   0  0  0  0  0  0  0  0  0  0  0  0
  -19.3455   -4.4790  -29.4850 H   0  0  0  0  0  0  0  0  0  0  0  0
  -20.0090   -6.8284  -32.4028 H   0  0  0  0  0  0  0  0  0  0  0  0
  -18.5676   -5.8457  -32.8035 H   0  0  0  0  0  0  0  0  0  0  0  0
  -18.9337   -3.6144  -33.9452 H   0  0  0  0  0  0  0  0  0  0  0  0
  -20.6169   -3.1209  -34.3013 H   0  0  0  0  0  0  0  0  0  0  0  0
  -22.0686   -5.7661  -26.5699 H   0  0  0  0  0  0  0  0  0  0  0  0
  -17.9493   -5.6456  -35.4066 H   0  0  0  0  0  0  0  0  0  0  0  0
  -19.6601   -4.2666  -31.4105 H   0  0  0  0  0  0  0  0  0  0  0  0
  -20.9811   -3.2764  -32.0837 H   0  0  0  0  0  0  0  0  0  0  0  0
  -22.3066   -2.9559  -27.5932 H   0  0  0  0  0  0  0  0  0  0  0  0
  -23.7669   -3.9863  -27.4130 H   0  0  0  0  0  0  0  0  0  0  0  0
  -22.0109   -2.9727  -25.2508 H   0  0  0  0  0  0  0  0  0  0  0  0
  -21.3548   -5.2567  -33.5683 H   0  0  0  0  0  0  0  0  0  0  0  0
  -18.7522   -5.9471  -37.5129 H   0  0  0  0  0  0  0  0  0  0  0  0
  1  5  1  0  0  0  0
  1  9  2  0  0  0  0
  2  6  2  0  0  0  0
  2  9  1  0  0  0  0
  3  7  1  0  0  0  0
  3 10  2  0  0  0  0
  4  8  2  0  0  0  0
  4 10  1  0  0  0  0
  5 11  2  0  0  0  0
  6 11  1  0  0  0  0
  7 12  2  0  0  0  0
  8 12  1  0  0  0  0
  9 27  1  0  0  0  0
 10 29  1  0  0  0  0
 11 33  1  0  0  0  0
 12 34  1  0  0  0  0
 13 25  1  0  0  0  0
 13 28  1  0  0  0  0
 13 31  2  0  0  0  0
 14 20  1  0  0  0  0
 14 23  1  0  0  0  0
 15 21  1  0  0  0  0
 15 23  1  0  0  0  0
 16 22  1  0  0  0  0
 16 28  1  0  0  0  0
 17 24  1  0  0  0  0
 17 27  1  0  0  0  0
 18 24  1  0  0  0  0
 18 27  1  0  0  0  0
 19 24  1  0  0  0  0
 19 28  1  0  0  0  0
 20 30  1  0  0  0  0
 21 30  1  0  0  0  0
 22 24  1  0  0  0  0
 22 26  1  0  0  0  0
 23 32  1  0  0  0  0
 25 30  1  0  0  0  0
 26 29  1  0  0  0  0
  1 35  1  0  0  0  0
  2 36  1  0  0  0  0
  3 37  1  0  0  0  0
  4 38  1  0  0  0  0
  5 39  1  0  0  0  0
  6 40  1  0  0  0  0
  7 41  1  0  0  0  0
  8 42  1  0  0  0  0
 14 43  1  0  0  0  0
 14 44  1  0  0  0  0
 15 45  1  0  0  0  0
 15 46  1  0  0  0  0
 16 47  1  0  0  0  0
 16 48  1  0  0  0  0
 17 49  1  0  0  0  0
 17 50  1  0  0  0  0
 18 51  1  0  0  0  0
 18 52  1  0  0  0  0
 19 53  1  0  0  0  0
 19 54  1  0  0  0  0
 20 55  1  0  0  0  0
 20 56  1  0  0  0  0
 21 57  1  0  0  0  0
 21 58  1  0  0  0  0
 22 59  1  0  0  0  0
 23 60  1  0  0  0  0
 25 61  1  0  0  0  0
 25 62  1  0  0  0  0
 26 63  1  0  0  0  0
 26 64  1  0  0  0  0
 29 65  1  0  0  0  0
 30 66  1  0  0  0  0
 32 67  1  0  0  0  0
M  CHG  1  30   1
M  END
> <SMILES>
OC1CCN(CC1)CC(=O)N1CC(CNc2ccc(cc2)F)C2(C1)CN(C2)c1ccc(cc1)F

> <FORMATTED_ID>
H3D-007499

> <MOLFORMULA>
C26H32F2N4O2

> <Exact Mass>
470.25

> <XLogP>
2.22

> <TPSA_NOPS>
59.1

> <s_m_source_file>
ligprep_h3d.sdf

> <i_m_source_file_index>
4839

> <i_lp_mmshare_version>
55123

> <i_f3d_flags>
0

> <s_epik_input>
W09IXVtDSF0xW0NIMl1bQ0gyXU4oW0NIMl1bQ0gyXTEpW0NIMl1DKD1PKU4oW0NIMl0yKVtDSDJdW0NASF0oW0NIMl1bTkhdYzNbY0hdW2NIXWMoRilbY0hdW2NIXTMpQzI0W0NIMl1OKFtDSDJdNCljNVtjSF1bY0hdYyhGKVtjSF1bY0hdNQ==

> <s_epik_cmdline>
J2VwaWtfcHl0aG9uJywgJy1waHQnLCAnMC41JywgJy1waCcsICc3LjUnLCAnLXRuJywgJzgnLCAnLW1hJywgJzUwMCcsICctaW1hZScsICc8aW5maWxlLm1hZT4nLCAnLW9tYWUnLCAnPG91dGZpbGUubWFlPic=

> <r_epik_Ionization_Penalty>
0.25295

> <r_epik_Ionization_Penalty_Charging>
0.25059

> <r_epik_Ionization_Penalty_Neutral>
0.00236062

> <r_epik_State_Penalty>
0.241919

> <r_epik_Charging_Adjusted_Penalty>
0.492509

> <i_epik_Tot_Q>
1

> <i_epik_Tot_abs_Q>
1

> <s_lp_Force_Field>
S-OPLS

> <r_lp_Energy>
33.5889

> <b_lp_Chiralities_Consistent>
1

> <s_lp_Variant>
ligprep_h3d.sdf:4839-1

> <ROCS_ShapeQuery>
_7L13

> <ROCS_TanimotoCombo>
0.706 

> <ROCS_ShapeTanimoto>
0.649 

> <ROCS_ColorTanimoto>
0.057 

> <ROCS_RefTversky>
0.760 

> <ROCS_RefColorTversky>
0.118 

> <ROCS_RefTverskyCombo>
0.878 

> <ROCS_FitTversky>
0.816 

> <ROCS_FitColorTversky>
0.099 

> <ROCS_FitTverskyCombo>
0.915 

> <ROCS_ColorScore>
-1.076

> <ROCS_Overlap>
1256.723

> <ROCS_Rank>
760                 

$$$$
ligprep_h3d.sdf:1100_1512
  -OEChem-08212117123D

 68 72  0     0  0  0  0  0  0999 V2000
  -19.8465   -4.0276  -32.2062 C   0  0  0  0  0  0  0  0  0  0  0  0
  -20.2937   -6.3907  -31.9766 C   0  0  0  0  0  0  0  0  0  0  0  0
  -19.2604   -4.2594  -33.4505 C   0  0  0  0  0  0  0  0  0  0  0  0
  -19.7075   -6.6225  -33.2209 C   0  0  0  0  0  0  0  0  0  0  0  0
  -16.7624   -5.9047  -26.3413 C   0  0  0  0  0  0  0  0  0  0  0  0
  -22.9320   -4.3526  -28.8534 C   0  0  0  0  0  0  0  0  0  0  0  0
  -20.6921   -4.4359  -25.3539 C   0  0  0  0  0  0  0  0  0  0  0  0
  -16.6493   -4.5085  -26.4814 C   0  0  0  0  0  0  0  0  0  0  0  0
  -20.8126   -4.6472  -27.7593 C   0  0  0  0  0  0  0  0  0  0  0  0
  -20.3631   -5.0932  -31.4692 C   0  0  0  0  0  0  0  0  0  0  0  0
  -20.9737   -4.8516  -30.1725 C   0  0  0  0  0  0  0  0  0  0  0  0
  -19.1909   -5.5568  -33.9579 C   0  0  0  0  0  0  0  0  0  0  0  0
  -22.3353   -4.5864  -30.0948 C   0  0  0  0  0  0  0  0  0  0  0  0
  -20.2121   -4.8823  -29.0078 C   0  0  0  0  0  0  0  0  0  0  0  0
  -22.1945   -4.3774  -27.6728 C   0  0  0  0  0  0  0  0  0  0  0  0
  -20.0697   -4.6720  -26.5712 C   0  0  0  0  0  0  0  0  0  0  0  0
  -22.0483   -4.1809  -25.3696 C   0  0  0  0  0  0  0  0  0  0  0  0
  -18.1150   -6.1431  -26.3588 C   0  0  0  0  0  0  0  0  0  0  0  0
  -22.7616   -3.9269  -24.1296 C   0  0  0  0  0  0  0  0  0  0  0  0
  -19.7889   -7.6891  -38.1800 C   0  0  0  0  0  0  0  0  0  0  0  0
  -26.1719   -4.9524  -22.6910 C   0  0  0  0  0  0  0  0  0  0  0  0
  -24.9799   -5.0798  -21.7902 C   0  0  0  0  0  0  0  0  0  0  0  0
  -24.9572   -4.0977  -22.9292 C   0  0  0  0  0  0  0  0  0  0  0  0
  -23.1995   -4.5403  -31.3149 C   0  0  0  0  0  0  0  0  0  0  0  0
  -18.7468   -5.1753  -29.1701 C   0  0  0  0  0  0  0  0  0  0  0  0
  -18.8681   -7.4082  -26.2522 C   0  0  0  0  0  0  0  0  0  0  0  0
  -20.4220   -8.3592  -40.4921 C   0  0  0  0  0  0  0  0  0  0  0  0
  -18.5640   -5.8048  -35.2882 C   0  0  0  0  0  0  0  0  0  0  0  0
  -18.9689   -6.6521  -37.4424 C   0  0  0  0  0  0  0  0  0  0  0  0
  -17.8355   -3.9025  -26.5809 N   0  0  0  0  0  0  0  0  0  0  0  0
  -22.8012   -4.1478  -26.4930 N   0  0  0  0  0  0  0  0  0  0  0  0
  -18.7067   -4.9228  -26.5032 N   0  0  0  0  0  0  0  0  0  0  0  0
  -24.1092   -4.3049  -24.0810 N   0  0  0  0  0  0  0  0  0  0  0  0
  -19.7300   -7.5068  -39.5528 N   0  0  0  0  0  0  0  0  0  0  0  0
  -22.1885   -3.3776  -23.1710 O   0  0  0  0  0  0  0  0  0  0  0  0
  -20.4177   -8.5719  -37.6026 O   0  0  0  0  0  0  0  0  0  0  0  0
  -19.5209   -6.3962  -36.1585 O   0  0  0  0  0  0  0  0  0  0  0  0
  -19.8925   -3.0105  -31.8240 H   0  0  0  0  0  0  0  0  0  0  0  0
  -20.6925   -7.2317  -31.4143 H   0  0  0  0  0  0  0  0  0  0  0  0
  -18.8594   -3.4233  -34.0173 H   0  0  0  0  0  0  0  0  0  0  0  0
  -19.6582   -7.6366  -33.6088 H   0  0  0  0  0  0  0  0  0  0  0  0
  -15.9722   -6.6345  -26.2419 H   0  0  0  0  0  0  0  0  0  0  0  0
  -24.0007   -4.1460  -28.8074 H   0  0  0  0  0  0  0  0  0  0  0  0
  -20.1397   -4.4493  -24.4184 H   0  0  0  0  0  0  0  0  0  0  0  0
  -15.7519   -3.9076  -26.5155 H   0  0  0  0  0  0  0  0  0  0  0  0
  -26.3735   -5.7662  -23.3768 H   0  0  0  0  0  0  0  0  0  0  0  0
  -27.0567   -4.4711  -22.2928 H   0  0  0  0  0  0  0  0  0  0  0  0
  -25.0619   -4.6844  -20.7852 H   0  0  0  0  0  0  0  0  0  0  0  0
  -24.3817   -5.9791  -21.8714 H   0  0  0  0  0  0  0  0  0  0  0  0
  -25.0421   -3.0483  -22.6683 H   0  0  0  0  0  0  0  0  0  0  0  0
  -23.2264   -3.5230  -31.7202 H   0  0  0  0  0  0  0  0  0  0  0  0
  -22.8233   -5.2178  -32.0901 H   0  0  0  0  0  0  0  0  0  0  0  0
  -24.2242   -4.8539  -31.0838 H   0  0  0  0  0  0  0  0  0  0  0  0
  -18.5762   -6.2532  -29.1121 H   0  0  0  0  0  0  0  0  0  0  0  0
  -18.3831   -4.8072  -30.1334 H   0  0  0  0  0  0  0  0  0  0  0  0
  -18.1644   -4.6786  -28.3890 H   0  0  0  0  0  0  0  0  0  0  0  0
  -19.1025   -7.6435  -25.2011 H   0  0  0  0  0  0  0  0  0  0  0  0
  -19.8206   -7.3707  -26.8078 H   0  0  0  0  0  0  0  0  0  0  0  0
  -18.3055   -8.2609  -26.6693 H   0  0  0  0  0  0  0  0  0  0  0  0
  -19.7689   -9.1969  -40.7778 H   0  0  0  0  0  0  0  0  0  0  0  0
  -21.3379   -8.7510  -40.0257 H   0  0  0  0  0  0  0  0  0  0  0  0
  -20.6863   -7.7785  -41.3882 H   0  0  0  0  0  0  0  0  0  0  0  0
  -18.2060   -4.8709  -35.7430 H   0  0  0  0  0  0  0  0  0  0  0  0
  -17.7016   -6.4798  -35.2009 H   0  0  0  0  0  0  0  0  0  0  0  0
  -17.9481   -7.0243  -37.3134 H   0  0  0  0  0  0  0  0  0  0  0  0
  -18.9400   -5.7196  -38.0146 H   0  0  0  0  0  0  0  0  0  0  0  0
  -24.5453   -4.6915  -24.9118 H   0  0  0  0  0  0  0  0  0  0  0  0
  -19.1742   -6.7377  -39.9155 H   0  0  0  0  0  0  0  0  0  0  0  0
  1  3  1  0  0  0  0
  1 10  2  0  0  0  0
  2  4  2  0  0  0  0
  2 10  1  0  0  0  0
  3 12  2  0  0  0  0
  4 12  1  0  0  0  0
  5  8  1  0  0  0  0
  5 18  2  0  0  0  0
  6 13  1  0  0  0  0
  6 15  2  0  0  0  0
  7 16  2  0  0  0  0
  7 17  1  0  0  0  0
  8 30  2  0  0  0  0
  9 14  2  0  0  0  0
  9 15  1  0  0  0  0
  9 16  1  0  0  0  0
 10 11  1  0  0  0  0
 11 13  2  0  0  0  0
 11 14  1  0  0  0  0
 12 28  1  0  0  0  0
 13 24  1  0  0  0  0
 14 25  1  0  0  0  0
 15 31  1  0  0  0  0
 16 32  1  0  0  0  0
 17 19  1  0  0  0  0
 17 31  2  0  0  0  0
 18 26  1  0  0  0  0
 18 32  1  0  0  0  0
 19 33  1  0  0  0  0
 19 35  2  0  0  0  0
 20 29  1  0  0  0  0
 20 34  1  0  0  0  0
 20 36  2  0  0  0  0
 21 22  1  0  0  0  0
 21 23  1  0  0  0  0
 22 23  1  0  0  0  0
 23 33  1  0  0  0  0
 27 34  1  0  0  0  0
 28 37  1  0  0  0  0
 29 37  1  0  0  0  0
 30 32  1  0  0  0  0
  1 38  1  0  0  0  0
  2 39  1  0  0  0  0
  3 40  1  0  0  0  0
  4 41  1  0  0  0  0
  5 42  1  0  0  0  0
  6 43  1  0  0  0  0
  7 44  1  0  0  0  0
  8 45  1  0  0  0  0
 21 46  1  0  0  0  0
 21 47  1  0  0  0  0
 22 48  1  0  0  0  0
 22 49  1  0  0  0  0
 23 50  1  0  0  0  0
 24 51  1  0  0  0  0
 24 52  1  0  0  0  0
 24 53  1  0  0  0  0
 25 54  1  0  0  0  0
 25 55  1  0  0  0  0
 25 56  1  0  0  0  0
 26 57  1  0  0  0  0
 26 58  1  0  0  0  0
 26 59  1  0  0  0  0
 27 60  1  0  0  0  0
 27 61  1  0  0  0  0
 27 62  1  0  0  0  0
 28 63  1  0  0  0  0
 28 64  1  0  0  0  0
 29 65  1  0  0  0  0
 29 66  1  0  0  0  0
 33 67  1  0  0  0  0
 34 68  1  0  0  0  0
M  END
> <SMILES>
CNC(=O)COCc1ccc(cc1)-c1c(cc2nc(cc(c2c1C)-n1nccc1C)C(=O)NC1CC1)C

> <FORMATTED_ID>
H3D-006915

> <MOLFORMULA>
C29H31N5O3

> <Exact Mass>
497.24

> <XLogP>
4.1

> <TPSA_NOPS>
98.1

> <s_m_source_file>
ligprep_h3d.sdf

> <i_m_source_file_index>
1100

> <i_lp_mmshare_version>
55123

> <i_f3d_flags>
0

> <s_epik_input>
W0NIM11bTkhdQyg9TylbQ0gyXU9bQ0gyXWMxW2NIXVtjSF1jKFtjSF1bY0hdMSktYyhjKFtjSF0yKVtDSDNdKWMoW0NIM10pYyhjMjMpYygtbjRuW2NIXVtjSF1jNFtDSDNdKVtjSF1jKG4zKUMoPU8pW05IXVtDSF01W0NIMl1bQ0gyXTU=

> <s_epik_cmdline>
J2VwaWtfcHl0aG9uJywgJy1waHQnLCAnMC41JywgJy1waCcsICc3LjUnLCAnLXRuJywgJzgnLCAnLW1hJywgJzUwMCcsICctaW1hZScsICc8aW5maWxlLm1hZT4nLCAnLW9tYWUnLCAnPG91dGZpbGUubWFlPic=

> <r_lp_tautomer_probability>
1

> <r_epik_Ionization_Penalty>
2.14989e-05

> <r_epik_Ionization_Penalty_Charging>
0

> <r_epik_Ionization_Penalty_Neutral>
2.14989e-05

> <r_epik_State_Penalty>
-0

> <r_epik_Charging_Adjusted_Penalty>
0

> <i_epik_Tot_Q>
0

> <i_epik_Tot_abs_Q>
0

> <s_lp_Force_Field>
S-OPLS

> <r_lp_Energy>
56.9028

> <b_lp_Chiralities_Consistent>
1

> <s_lp_Variant>
ligprep_h3d.sdf:1100-1

> <ROCS_ShapeQuery>
_7L13

> <ROCS_TanimotoCombo>
0.711 

> <ROCS_ShapeTanimoto>
0.600 

> <ROCS_ColorTanimoto>
0.111 

> <ROCS_RefTversky>
0.760 

> <ROCS_RefColorTversky>
0.220 

> <ROCS_RefTverskyCombo>
0.980 

> <ROCS_FitTversky>
0.741 

> <ROCS_FitColorTversky>
0.184 

> <ROCS_FitTverskyCombo>
0.925 

> <ROCS_ColorScore>
-2.002

> <ROCS_Overlap>
1263.314

> <ROCS_Rank>
761                 

$$$$
ligprep_h3d.sdf:5419_778
  -OEChem-08212117123D

 64 69  0     1  0  0  0  0  0999 V2000
  -21.1472   -4.9199  -34.6705 C   0  0  0  0  0  0  0  0  0  0  0  0
  -20.3508   -6.6316  -33.1629 C   0  0  0  0  0  0  0  0  0  0  0  0
  -20.4555   -5.5231  -35.7209 C   0  0  0  0  0  0  0  0  0  0  0  0
  -19.6592   -7.2349  -34.2133 C   0  0  0  0  0  0  0  0  0  0  0  0
  -25.1985   -3.1520  -22.4136 C   0  0  0  0  0  0  0  0  0  0  0  0
  -25.2938   -5.3443  -25.2707 C   0  0  0  0  0  0  0  0  0  0  0  0
  -19.0585   -4.4769  -28.5647 C   0  0  0  0  0  0  0  0  0  0  0  0
  -21.7340   -4.1253  -29.3819 C   0  0  0  0  0  0  0  0  0  0  0  0
  -26.0967   -3.7696  -21.5573 C   0  0  0  0  0  0  0  0  0  0  0  0
  -26.5941   -5.5118  -23.0247 C   0  0  0  0  0  0  0  0  0  0  0  0
  -25.7088   -4.9714  -23.9625 C   0  0  0  0  0  0  0  0  0  0  0  0
  -20.0930   -4.5156  -27.6370 C   0  0  0  0  0  0  0  0  0  0  0  0
  -21.0948   -5.4741  -33.3915 C   0  0  0  0  0  0  0  0  0  0  0  0
  -25.0278   -3.7982  -23.6344 C   0  0  0  0  0  0  0  0  0  0  0  0
  -21.4192   -4.3364  -28.0463 C   0  0  0  0  0  0  0  0  0  0  0  0
  -19.3651   -4.2565  -29.9080 C   0  0  0  0  0  0  0  0  0  0  0  0
  -20.6940   -4.0844  -30.3136 C   0  0  0  0  0  0  0  0  0  0  0  0
  -19.7115   -6.6807  -35.4923 C   0  0  0  0  0  0  0  0  0  0  0  0
  -24.3846   -4.4066  -25.7040 C   0  0  0  0  0  0  0  0  0  0  0  0
  -23.6713   -4.3530  -26.9898 C   0  0  0  0  0  0  0  0  0  0  0  0
  -18.9651   -3.9722  -25.3963 C   0  0  0  0  0  0  0  0  0  0  0  0
  -21.4523   -4.4584  -25.7142 C   0  0  0  0  0  0  0  0  0  0  0  0
  -17.7749   -4.8954  -25.2353 C   0  0  0  0  0  0  0  0  0  0  0  0
  -19.6482   -6.2765  -25.8957 C   0  0  0  0  0  0  0  0  0  0  0  0
  -20.0097   -4.8016  -26.1543 C   0  0  1  0  0  0  0  0  0  0  0  0
  -17.5078   -7.3953  -25.1448 C   0  0  0  0  0  0  0  0  0  0  0  0
  -17.0290   -4.3974  -30.3333 C   0  0  0  0  0  0  0  0  0  0  0  0
  -21.8393   -4.8261  -32.2613 C   0  0  0  0  0  0  0  0  0  0  0  0
  -26.7807   -4.9051  -21.8277 N   0  0  0  0  0  0  0  0  0  0  0  0
  -24.2307   -3.4777  -24.7097 N   0  0  0  0  0  0  0  0  0  0  0  0
  -22.2843   -4.3910  -26.9350 N   0  0  0  0  0  0  0  0  0  0  0  0
  -18.4278   -6.2277  -24.9989 N   0  3  1  0  0  0  0  0  0  0  0  0
  -24.3748   -4.2969  -27.9948 O   0  0  0  0  0  0  0  0  0  0  0  0
  -18.3553   -4.2135  -30.8234 O   0  0  0  0  0  0  0  0  0  0  0  0
  -20.9879   -3.8739  -31.6287 O   0  0  0  0  0  0  0  0  0  0  0  0
  -19.0494   -7.2616  -36.5015 F   0  0  0  0  0  0  0  0  0  0  0  0
  -21.7236   -4.0178  -34.8582 H   0  0  0  0  0  0  0  0  0  0  0  0
  -20.3044   -7.0708  -32.1698 H   0  0  0  0  0  0  0  0  0  0  0  0
  -20.4968   -5.0922  -36.7167 H   0  0  0  0  0  0  0  0  0  0  0  0
  -19.0795   -8.1359  -34.0357 H   0  0  0  0  0  0  0  0  0  0  0  0
  -24.6742   -2.2420  -22.1533 H   0  0  0  0  0  0  0  0  0  0  0  0
  -25.6262   -6.2074  -25.8325 H   0  0  0  0  0  0  0  0  0  0  0  0
  -18.0281   -4.6215  -28.2544 H   0  0  0  0  0  0  0  0  0  0  0  0
  -22.7521   -3.9862  -29.7240 H   0  0  0  0  0  0  0  0  0  0  0  0
  -26.2991   -3.3414  -20.5798 H   0  0  0  0  0  0  0  0  0  0  0  0
  -27.1628   -6.4175  -23.1984 H   0  0  0  0  0  0  0  0  0  0  0  0
  -19.3332   -3.6005  -24.4309 H   0  0  0  0  0  0  0  0  0  0  0  0
  -18.6648   -3.0906  -25.9815 H   0  0  0  0  0  0  0  0  0  0  0  0
  -21.8818   -5.2038  -25.0330 H   0  0  0  0  0  0  0  0  0  0  0  0
  -21.5189   -3.4789  -25.2223 H   0  0  0  0  0  0  0  0  0  0  0  0
  -17.1498   -4.9334  -26.1228 H   0  0  0  0  0  0  0  0  0  0  0  0
  -17.1893   -4.6643  -24.3490 H   0  0  0  0  0  0  0  0  0  0  0  0
  -20.4317   -6.8513  -25.3812 H   0  0  0  0  0  0  0  0  0  0  0  0
  -19.3631   -6.8013  -26.8206 H   0  0  0  0  0  0  0  0  0  0  0  0
  -17.1390   -7.4035  -26.1721 H   0  0  0  0  0  0  0  0  0  0  0  0
  -16.6889   -7.2662  -24.4346 H   0  0  0  0  0  0  0  0  0  0  0  0
  -18.0786   -8.2998  -24.9256 H   0  0  0  0  0  0  0  0  0  0  0  0
  -16.3216   -4.3403  -31.1642 H   0  0  0  0  0  0  0  0  0  0  0  0
  -16.9528   -5.3707  -29.8421 H   0  0  0  0  0  0  0  0  0  0  0  0
  -16.8042   -3.6085  -29.6116 H   0  0  0  0  0  0  0  0  0  0  0  0
  -22.7375   -4.3158  -32.6254 H   0  0  0  0  0  0  0  0  0  0  0  0
  -22.1524   -5.5735  -31.5243 H   0  0  0  0  0  0  0  0  0  0  0  0
  -23.6207   -2.6729  -24.7544 H   0  0  0  0  0  0  0  0  0  0  0  0
  -18.7687   -6.2296  -24.0295 H   0  0  0  0  0  0  0  0  0  0  0  0
  1  3  1  0  0  0  0
  1 13  2  0  0  0  0
  2  4  2  0  0  0  0
  2 13  1  0  0  0  0
  3 18  2  0  0  0  0
  4 18  1  0  0  0  0
  5  9  1  0  0  0  0
  5 14  2  0  0  0  0
  6 11  1  0  0  0  0
  6 19  2  0  0  0  0
  7 12  1  0  0  0  0
  7 16  2  0  0  0  0
  8 15  1  0  0  0  0
  8 17  2  0  0  0  0
  9 29  2  0  0  0  0
 10 11  2  0  0  0  0
 10 29  1  0  0  0  0
 11 14  1  0  0  0  0
 12 15  2  0  0  0  0
 12 25  1  0  0  0  0
 13 28  1  0  0  0  0
 14 30  1  0  0  0  0
 15 31  1  0  0  0  0
 16 17  1  0  0  0  0
 16 34  1  0  0  0  0
 17 35  1  0  0  0  0
 18 36  1  0  0  0  0
 19 20  1  0  0  0  0
 19 30  1  0  0  0  0
 20 31  1  0  0  0  0
 20 33  2  0  0  0  0
 21 23  1  0  0  0  0
 21 25  1  0  0  0  0
 22 25  1  0  0  0  0
 22 31  1  0  0  0  0
 23 32  1  0  0  0  0
 24 25  1  0  0  0  0
 24 32  1  0  0  0  0
 26 32  1  0  0  0  0
 27 34  1  0  0  0  0
 28 35  1  0  0  0  0
  1 37  1  0  0  0  0
  2 38  1  0  0  0  0
  3 39  1  0  0  0  0
  4 40  1  0  0  0  0
  5 41  1  0  0  0  0
  6 42  1  0  0  0  0
  7 43  1  0  0  0  0
  8 44  1  0  0  0  0
  9 45  1  0  0  0  0
 10 46  1  0  0  0  0
 21 47  1  0  0  0  0
 21 48  1  0  0  0  0
 22 49  1  0  0  0  0
 22 50  1  0  0  0  0
 23 51  1  0  0  0  0
 23 52  1  0  0  0  0
 24 53  1  0  0  0  0
 24 54  1  0  0  0  0
 26 55  1  0  0  0  0
 26 56  1  0  0  0  0
 26 57  1  0  0  0  0
 27 58  1  0  0  0  0
 27 59  1  0  0  0  0
 27 60  1  0  0  0  0
 28 61  1  0  0  0  0
 28 62  1  0  0  0  0
 30 63  1  0  0  0  0
 32 64  1  0  0  0  0
M  CHG  1  32   1
M  END
> <SMILES>
COc1cc2c(cc1OCc1ccc(cc1)F)N(CC12CCN(C)C1)C(=O)c1cc2cnccc2[nH]1

> <FORMATTED_ID>
H3D-015651

> <MOLFORMULA>
C28H27FN4O3

> <Exact Mass>
486.21

> <XLogP>
4.84

> <TPSA_NOPS>
70.7

> <s_m_source_file>
ligprep_h3d.sdf

> <i_m_source_file_index>
5419

> <i_lp_mmshare_version>
55123

> <i_f3d_flags>
0

> <s_epik_input>
W2NIXTFbY0hdYyhGKVtjSF1bY0hdYzFbQ0gyXU9jKGMoW2NIXTIpT1tDSDNdKVtjSF1jKGMyW0NAQF0zNFtDSDJdW0NIMl1OKFtDSDNdKVtDSDJdNClOKFtDSDJdMylDKD1PKWMoW2NIXTUpW25IXWMoYzU2KVtjSF1bY0hdbltjSF02

> <s_epik_cmdline>
J2VwaWtfcHl0aG9uJywgJy1waHQnLCAnMC41JywgJy1waCcsICc3LjUnLCAnLXRuJywgJzgnLCAnLW1hJywgJzUwMCcsICctaW1hZScsICc8aW5maWxlLm1hZT4nLCAnLW9tYWUnLCAnPG91dGZpbGUubWFlPic=

> <r_lp_tautomer_probability>
0.999931

> <r_epik_Ionization_Penalty>
0.642492

> <r_epik_Ionization_Penalty_Charging>
0.00853013

> <r_epik_Ionization_Penalty_Neutral>
0.633962

> <r_epik_State_Penalty>
0.651058

> <r_epik_Charging_Adjusted_Penalty>
0.659589

> <i_epik_Tot_Q>
1

> <i_epik_Tot_abs_Q>
1

> <s_lp_Force_Field>
S-OPLS

> <r_lp_Energy>
65.5284

> <b_lp_Chiralities_Consistent>
1

> <s_lp_Variant>
ligprep_h3d.sdf:5419-2

> <ROCS_ShapeQuery>
_7L13

> <ROCS_TanimotoCombo>
0.722 

> <ROCS_ShapeTanimoto>
0.606 

> <ROCS_ColorTanimoto>
0.116 

> <ROCS_RefTversky>
0.760 

> <ROCS_RefColorTversky>
0.250 

> <ROCS_RefTverskyCombo>
1.009 

> <ROCS_FitTversky>
0.749 

> <ROCS_FitColorTversky>
0.179 

> <ROCS_FitTverskyCombo>
0.928 

> <ROCS_ColorScore>
-2.296

> <ROCS_Overlap>
1262.490

> <ROCS_Rank>
762                 

$$$$
ligprep_h3d.sdf:1058_44
  -OEChem-08212117123D

 59 64  0     1  0  0  0  0  0999 V2000
  -20.9790   -5.1401  -29.5062 C   0  0  0  0  0  0  0  0  0  0  0  0
  -21.7474   -4.3751  -30.3863 C   0  0  0  0  0  0  0  0  0  0  0  0
  -21.0934   -4.8978  -28.1162 C   0  0  0  0  0  0  0  0  0  0  0  0
  -21.9854   -3.9379  -27.5821 C   0  0  0  0  0  0  0  0  0  0  0  0
  -22.5891   -3.4190  -29.8618 C   0  0  0  0  0  0  0  0  0  0  0  0
  -22.7377   -3.1656  -28.4980 C   0  0  0  0  0  0  0  0  0  0  0  0
  -21.9405   -4.2659  -31.7760 C   0  0  0  0  0  0  0  0  0  0  0  0
  -18.9017   -3.8055  -26.2404 C   0  0  0  0  0  0  0  0  0  0  0  0
  -19.2266   -6.0169  -25.0133 C   0  0  0  0  0  0  0  0  0  0  0  0
  -17.0505   -5.1426  -25.8331 C   0  0  0  0  0  0  0  0  0  0  0  0
  -20.4471   -4.6090  -33.7892 C   0  0  0  0  0  0  0  0  0  0  0  0
  -20.2401   -5.7251  -27.1924 C   0  0  0  0  0  0  0  0  0  0  0  0
  -23.0594   -2.8038  -25.6473 C   0  0  0  0  0  0  0  0  0  0  0  0
  -21.2002   -4.4600  -25.2377 C   0  0  2  0  0  0  0  0  0  0  0  0
  -21.4152   -6.5011  -32.8589 C   0  0  2  0  0  0  0  0  0  0  0  0
  -23.4274   -3.1239  -24.1955 C   0  0  1  0  0  0  0  0  0  0  0  0
  -21.0481   -3.5235  -24.0031 C   0  0  2  0  0  0  0  0  0  0  0  0
  -20.1527   -6.8594  -33.6370 C   0  0  1  0  0  0  0  0  0  0  0  0
  -19.8728   -4.9594  -25.8973 C   0  0  2  0  0  0  0  0  0  0  0  0
  -22.7134   -6.8787  -33.5797 C   0  0  0  0  0  0  0  0  0  0  0  0
  -24.4042   -4.2927  -24.0812 C   0  0  0  0  0  0  0  0  0  0  0  0
  -20.0852   -3.9873  -22.9175 C   0  0  0  0  0  0  0  0  0  0  0  0
  -20.2063   -8.0895  -34.5250 C   0  0  0  0  0  0  0  0  0  0  0  0
  -22.8279   -3.3178  -32.0915 N   0  0  0  0  0  0  0  0  0  0  0  0
  -17.6377   -4.1467  -26.4978 N   0  5  0  0  0  0  0  0  0  0  0  0
  -17.8472   -5.9948  -25.0706 N   0  0  0  0  0  0  0  0  0  0  0  0
  -22.0951   -3.7630  -26.2003 N   0  0  3  0  0  0  0  0  0  0  0  0
  -21.2747   -5.0605  -32.7586 N   0  0  0  0  0  0  0  0  0  0  0  0
  -19.3176   -2.6552  -26.3776 O   0  0  0  0  0  0  0  0  0  0  0  0
  -19.8564   -6.8567  -24.3741 O   0  0  0  0  0  0  0  0  0  0  0  0
  -15.8355   -5.3537  -25.8791 O   0  0  0  0  0  0  0  0  0  0  0  0
  -20.1893   -3.4662  -34.1392 O   0  0  0  0  0  0  0  0  0  0  0  0
  -23.2357   -2.7813  -30.8757 O   0  0  0  0  0  0  0  0  0  0  0  0
  -19.9056   -5.6956  -34.4403 O   0  0  0  0  0  0  0  0  0  0  0  0
  -22.3137   -3.3801  -23.3448 O   0  0  0  0  0  0  0  0  0  0  0  0
  -23.5092   -2.1353  -28.1311 F   0  0  0  0  0  0  0  0  0  0  0  0
  -20.2996   -5.8995  -29.8823 H   0  0  0  0  0  0  0  0  0  0  0  0
  -20.7973   -6.6424  -26.9580 H   0  0  0  0  0  0  0  0  0  0  0  0
  -19.3278   -6.0413  -27.7153 H   0  0  0  0  0  0  0  0  0  0  0  0
  -23.9703   -2.8510  -26.2790 H   0  0  0  0  0  0  0  0  0  0  0  0
  -22.7530   -1.7469  -25.6870 H   0  0  0  0  0  0  0  0  0  0  0  0
  -21.7702   -5.3429  -24.9059 H   0  0  0  0  0  0  0  0  0  0  0  0
  -21.4016   -6.9521  -31.8677 H   0  0  0  0  0  0  0  0  0  0  0  0
  -23.9805   -2.2219  -23.7579 H   0  0  0  0  0  0  0  0  0  0  0  0
  -20.7235   -2.5134  -24.3117 H   0  0  0  0  0  0  0  0  0  0  0  0
  -19.3009   -6.9589  -32.9466 H   0  0  0  0  0  0  0  0  0  0  0  0
  -22.7285   -6.4286  -34.5706 H   0  0  0  0  0  0  0  0  0  0  0  0
  -23.5684   -6.5188  -33.0105 H   0  0  0  0  0  0  0  0  0  0  0  0
  -22.7787   -7.9608  -33.6775 H   0  0  0  0  0  0  0  0  0  0  0  0
  -23.9494   -5.1994  -24.4805 H   0  0  0  0  0  0  0  0  0  0  0  0
  -25.3127   -4.0759  -24.6434 H   0  0  0  0  0  0  0  0  0  0  0  0
  -24.6662   -4.4591  -23.0362 H   0  0  0  0  0  0  0  0  0  0  0  0
  -20.3613   -4.9847  -22.5751 H   0  0  0  0  0  0  0  0  0  0  0  0
  -20.1188   -3.3011  -22.0711 H   0  0  0  0  0  0  0  0  0  0  0  0
  -19.0681   -4.0168  -23.3088 H   0  0  0  0  0  0  0  0  0  0  0  0
  -21.0441   -8.0174  -35.2218 H   0  0  0  0  0  0  0  0  0  0  0  0
  -20.3330   -8.9889  -33.9188 H   0  0  0  0  0  0  0  0  0  0  0  0
  -19.2819   -8.1827  -35.0991 H   0  0  0  0  0  0  0  0  0  0  0  0
  -17.3597   -6.6741  -24.4940 H   0  0  0  0  0  0  0  0  0  0  0  0
  1  2  2  0  0  0  0
  1  3  1  0  0  0  0
  2  5  1  0  0  0  0
  2  7  1  0  0  0  0
  3  4  2  0  0  0  0
  3 12  1  0  0  0  0
  4  6  1  0  0  0  0
  4 27  1  0  0  0  0
  5  6  2  0  0  0  0
  5 33  1  0  0  0  0
  6 36  1  0  0  0  0
  7 24  2  0  0  0  0
  7 28  1  0  0  0  0
  8 19  1  0  0  0  0
  8 25  1  0  0  0  0
  8 29  2  0  0  0  0
  9 19  1  0  0  0  0
  9 26  1  0  0  0  0
  9 30  2  0  0  0  0
 10 25  1  0  0  0  0
 10 26  1  0  0  0  0
 10 31  2  0  0  0  0
 11 28  1  0  0  0  0
 11 32  2  0  0  0  0
 11 34  1  0  0  0  0
 12 19  1  0  0  0  0
 13 16  1  0  0  0  0
 13 27  1  0  0  0  0
 14 17  1  0  0  0  0
 14 19  1  0  0  0  0
 14 27  1  0  0  0  0
 15 18  1  0  0  0  0
 15 20  1  0  0  0  0
 15 28  1  0  0  0  0
 16 21  1  0  0  0  0
 16 35  1  0  0  0  0
 17 22  1  0  0  0  0
 17 35  1  0  0  0  0
 18 23  1  0  0  0  0
 18 34  1  0  0  0  0
 24 33  1  0  0  0  0
  1 37  1  0  0  0  0
 12 38  1  0  0  0  0
 12 39  1  0  0  0  0
 13 40  1  0  0  0  0
 13 41  1  0  0  0  0
 14 42  1  0  0  0  0
 15 43  1  0  0  0  0
 16 44  1  0  0  0  0
 17 45  1  0  0  0  0
 18 46  1  0  0  0  0
 20 47  1  0  0  0  0
 20 48  1  0  0  0  0
 20 49  1  0  0  0  0
 21 50  1  0  0  0  0
 21 51  1  0  0  0  0
 21 52  1  0  0  0  0
 22 53  1  0  0  0  0
 22 54  1  0  0  0  0
 22 55  1  0  0  0  0
 23 56  1  0  0  0  0
 23 57  1  0  0  0  0
 23 58  1  0  0  0  0
 26 59  1  0  0  0  0
M  CHG  1  25  -1
M  END
> <SMILES>
C[C@@H]1CN2[C@H]([C@H](C)O1)C1(Cc3cc4c(noc4c(c32)F)N2[C@@H](C)[C@@H](C)OC2=O)C(=O)NC(=O)NC1=O

> <FORMATTED_ID>
H3D-006620

> <MOLFORMULA>
C23H24FN5O7

> <Exact Mass>
501.17

> <XLogP>
1.24

> <TPSA_NOPS>
143.6

> <s_m_source_file>
ligprep_h3d.sdf

> <i_m_source_file_index>
1058

> <i_lp_mmshare_version>
55123

> <i_f3d_flags>
0

> <s_epik_input>
Tz1DMVtOSF1DKD1PKVtOSF1DKD1PKUMxMltDQEBIXTNOKFtDSDJdW0NAQEhdKFtDSDNdKU9bQ0BIXTNbQ0gzXSljNGMoW0NIMl0yKVtjSF1jNWMoYzRGKW9uYzVONltDQEBIXShbQ0gzXSlbQ0BASF0oW0NIM10pT0M2PU8=

> <s_epik_cmdline>
J2VwaWtfcHl0aG9uJywgJy1waHQnLCAnMC41JywgJy1waCcsICc3LjUnLCAnLXRuJywgJzgnLCAnLW1hJywgJzUwMCcsICctaW1hZScsICc8aW5maWxlLm1hZT4nLCAnLW9tYWUnLCAnPG91dGZpbGUubWFlPic=

> <r_lp_tautomer_probability>
1

> <r_epik_Ionization_Penalty>
0.455388

> <r_epik_Ionization_Penalty_Charging>
0.455373

> <r_epik_Ionization_Penalty_Neutral>
1.46169e-05

> <r_epik_State_Penalty>
0.458483

> <r_epik_Charging_Adjusted_Penalty>
0.913857

> <i_epik_Tot_Q>
-1

> <i_epik_Tot_abs_Q>
1

> <s_epik_Chemistry_Notes>
This compound has an ester and may undergo hydrolysis at high or low pH.

> <s_lp_Force_Field>
S-OPLS

> <r_lp_Energy>
49.4137

> <b_lp_Chiralities_Consistent>
1

> <s_lp_Variant>
ligprep_h3d.sdf:1058-2

> <ROCS_ShapeQuery>
_7L13

> <ROCS_TanimotoCombo>
0.728 

> <ROCS_ShapeTanimoto>
0.597 

> <ROCS_ColorTanimoto>
0.130 

> <ROCS_RefTversky>
0.760 

> <ROCS_RefColorTversky>
0.298 

> <ROCS_RefTverskyCombo>
1.058 

> <ROCS_FitTversky>
0.736 

> <ROCS_FitColorTversky>
0.188 

> <ROCS_FitTverskyCombo>
0.925 

> <ROCS_ColorScore>
-2.772

> <ROCS_Overlap>
1263.557

> <ROCS_Rank>
763                 

$$$$
ligprep_h3d.sdf:5457_1290
  -OEChem-08212117123D

 58 63  0     0  0  0  0  0  0999 V2000
  -20.3088   -4.7584  -24.9328 C   0  0  0  0  0  0  0  0  0  0  0  0
  -18.9146   -4.8551  -24.9596 C   0  0  0  0  0  0  0  0  0  0  0  0
  -20.6665   -5.9421  -32.9326 C   0  0  0  0  0  0  0  0  0  0  0  0
  -20.5851   -3.5568  -33.2601 C   0  0  0  0  0  0  0  0  0  0  0  0
  -18.9086   -4.6267  -27.3728 C   0  0  0  0  0  0  0  0  0  0  0  0
  -26.4401   -4.7715  -22.5986 C   0  0  0  0  0  0  0  0  0  0  0  0
  -19.9277   -6.0963  -34.0971 C   0  0  0  0  0  0  0  0  0  0  0  0
  -19.8482   -3.7714  -34.4162 C   0  0  0  0  0  0  0  0  0  0  0  0
  -25.7840   -4.2875  -21.4973 C   0  0  0  0  0  0  0  0  0  0  0  0
  -20.2941   -4.5253  -27.3370 C   0  0  0  0  0  0  0  0  0  0  0  0
  -20.9979   -4.5881  -26.1281 C   0  0  0  0  0  0  0  0  0  0  0  0
  -20.9964   -4.6568  -32.5135 C   0  0  0  0  0  0  0  0  0  0  0  0
  -18.2185   -4.7883  -26.1723 C   0  0  0  0  0  0  0  0  0  0  0  0
  -24.3598   -4.2769  -23.1873 C   0  0  0  0  0  0  0  0  0  0  0  0
  -23.1880   -4.1457  -24.0944 C   0  0  0  0  0  0  0  0  0  0  0  0
  -24.6833   -5.0411  -25.7854 C   0  0  0  0  0  0  0  0  0  0  0  0
  -25.7283   -5.1492  -24.9431 C   0  0  0  0  0  0  0  0  0  0  0  0
  -23.3632   -4.5283  -25.3780 C   0  0  0  0  0  0  0  0  0  0  0  0
  -21.3193   -5.7218  -29.2897 C   0  0  0  0  0  0  0  0  0  0  0  0
  -20.8940   -3.2207  -29.4296 C   0  0  0  0  0  0  0  0  0  0  0  0
  -22.1804   -5.6207  -30.5563 C   0  0  0  0  0  0  0  0  0  0  0  0
  -21.7972   -3.1815  -30.6633 C   0  0  0  0  0  0  0  0  0  0  0  0
  -22.5928   -4.1248  -27.7306 C   0  0  0  0  0  0  0  0  0  0  0  0
  -21.2549   -4.3954  -28.4944 C   0  0  0  0  0  0  0  0  0  0  0  0
  -16.2148   -5.0321  -24.9149 C   0  0  0  0  0  0  0  0  0  0  0  0
  -25.5343   -4.7558  -23.6384 N   0  0  0  0  0  0  0  0  0  0  0  0
  -19.5444   -5.0197  -34.7969 N   0  3  0  0  0  0  0  0  0  0  0  0
  -24.5000   -3.9895  -21.8907 N   0  3  0  0  0  0  0  0  0  0  0  0
  -22.3882   -4.4671  -26.3178 N   0  0  0  0  0  0  0  0  0  0  0  0
  -21.7381   -4.4721  -31.3515 N   0  0  0  0  0  0  0  0  0  0  0  0
  -16.8595   -4.8748  -26.1776 O   0  0  0  0  0  0  0  0  0  0  0  0
  -20.8257   -4.8238  -23.9810 H   0  0  0  0  0  0  0  0  0  0  0  0
  -18.3708   -4.9817  -24.0267 H   0  0  0  0  0  0  0  0  0  0  0  0
  -20.9770   -6.8153  -32.3671 H   0  0  0  0  0  0  0  0  0  0  0  0
  -20.8317   -2.5450  -32.9537 H   0  0  0  0  0  0  0  0  0  0  0  0
  -18.3699   -4.5717  -28.3135 H   0  0  0  0  0  0  0  0  0  0  0  0
  -27.4351   -5.1280  -22.7869 H   0  0  0  0  0  0  0  0  0  0  0  0
  -19.6283   -7.0545  -34.4982 H   0  0  0  0  0  0  0  0  0  0  0  0
  -19.4869   -2.9785  -35.0567 H   0  0  0  0  0  0  0  0  0  0  0  0
  -26.0419   -4.1064  -20.4727 H   0  0  0  0  0  0  0  0  0  0  0  0
  -22.2527   -3.7579  -23.7100 H   0  0  0  0  0  0  0  0  0  0  0  0
  -24.8064   -5.3440  -26.8214 H   0  0  0  0  0  0  0  0  0  0  0  0
  -26.7014   -5.5244  -25.2321 H   0  0  0  0  0  0  0  0  0  0  0  0
  -21.7035   -6.5320  -28.6542 H   0  0  0  0  0  0  0  0  0  0  0  0
  -20.3072   -6.0329  -29.5863 H   0  0  0  0  0  0  0  0  0  0  0  0
  -19.8588   -3.3190  -29.7639 H   0  0  0  0  0  0  0  0  0  0  0  0
  -20.9653   -2.2694  -28.9002 H   0  0  0  0  0  0  0  0  0  0  0  0
  -22.0658   -6.5453  -31.1262 H   0  0  0  0  0  0  0  0  0  0  0  0
  -23.2340   -5.5132  -30.2911 H   0  0  0  0  0  0  0  0  0  0  0  0
  -22.8251   -2.9578  -30.3767 H   0  0  0  0  0  0  0  0  0  0  0  0
  -21.4504   -2.3843  -31.3230 H   0  0  0  0  0  0  0  0  0  0  0  0
  -22.9231   -3.0848  -27.8289 H   0  0  0  0  0  0  0  0  0  0  0  0
  -23.3998   -4.7580  -28.1225 H   0  0  0  0  0  0  0  0  0  0  0  0
  -15.1334   -5.0879  -25.0616 H   0  0  0  0  0  0  0  0  0  0  0  0
  -16.5752   -5.9437  -24.4318 H   0  0  0  0  0  0  0  0  0  0  0  0
  -16.4509   -4.1708  -24.2855 H   0  0  0  0  0  0  0  0  0  0  0  0
  -19.0027   -5.1552  -35.6501 H   0  0  0  0  0  0  0  0  0  0  0  0
  -23.7731   -3.6111  -21.2896 H   0  0  0  0  0  0  0  0  0  0  0  0
  1  2  1  0  0  0  0
  1 11  2  0  0  0  0
  2 13  2  0  0  0  0
  3  7  1  0  0  0  0
  3 12  2  0  0  0  0
  4  8  2  0  0  0  0
  4 12  1  0  0  0  0
  5 10  2  0  0  0  0
  5 13  1  0  0  0  0
  6  9  2  0  0  0  0
  6 26  1  0  0  0  0
  7 27  2  0  0  0  0
  8 27  1  0  0  0  0
  9 28  1  0  0  0  0
 10 11  1  0  0  0  0
 10 24  1  0  0  0  0
 11 29  1  0  0  0  0
 12 30  1  0  0  0  0
 13 31  1  0  0  0  0
 14 15  1  0  0  0  0
 14 26  1  0  0  0  0
 14 28  2  0  0  0  0
 15 18  2  0  0  0  0
 16 17  2  0  0  0  0
 16 18  1  0  0  0  0
 17 26  1  0  0  0  0
 18 29  1  0  0  0  0
 19 21  1  0  0  0  0
 19 24  1  0  0  0  0
 20 22  1  0  0  0  0
 20 24  1  0  0  0  0
 21 30  1  0  0  0  0
 22 30  1  0  0  0  0
 23 24  1  0  0  0  0
 23 29  1  0  0  0  0
 25 31  1  0  0  0  0
  1 32  1  0  0  0  0
  2 33  1  0  0  0  0
  3 34  1  0  0  0  0
  4 35  1  0  0  0  0
  5 36  1  0  0  0  0
  6 37  1  0  0  0  0
  7 38  1  0  0  0  0
  8 39  1  0  0  0  0
  9 40  1  0  0  0  0
 15 41  1  0  0  0  0
 16 42  1  0  0  0  0
 17 43  1  0  0  0  0
 19 44  1  0  0  0  0
 19 45  1  0  0  0  0
 20 46  1  0  0  0  0
 20 47  1  0  0  0  0
 21 48  1  0  0  0  0
 21 49  1  0  0  0  0
 22 50  1  0  0  0  0
 22 51  1  0  0  0  0
 23 52  1  0  0  0  0
 23 53  1  0  0  0  0
 25 54  1  0  0  0  0
 25 55  1  0  0  0  0
 25 56  1  0  0  0  0
 27 57  1  0  0  0  0
 28 58  1  0  0  0  0
M  CHG  2  27   1  28   1
M  END
> <SMILES>
COc1ccc2c(c1)C1(CCN(CC1)c1ccncc1)CN2c1ccn2ccnc2c1

> <FORMATTED_ID>
H3D-016609

> <MOLFORMULA>
C25H25N5O

> <Exact Mass>
411.21

> <XLogP>
4.68

> <TPSA_NOPS>
45.9

> <s_m_source_file>
ligprep_h3d.sdf

> <i_m_source_file_index>
5457

> <i_lp_mmshare_version>
55123

> <i_f3d_flags>
0

> <s_epik_input>
W2NIXTFbY0hdbmMobjEyKVtjSF1jKFtjSF1bY0hdMilOKFtDSDJdMyljKFtjSF1bY0hdYyhbY0hdNClPW0NIM10pYzRDMzVbQ0gyXVtDSDJdTihbQ0gyXVtDSDJdNSljNltjSF1bY0hdbltjSF1bY0hdNg==

> <s_epik_cmdline>
J2VwaWtfcHl0aG9uJywgJy1waHQnLCAnMC41JywgJy1waCcsICc3LjUnLCAnLXRuJywgJzgnLCAnLW1hJywgJzUwMCcsICctaW1hZScsICc8aW5maWxlLm1hZT4nLCAnLW9tYWUnLCAnPG91dGZpbGUubWFlPic=

> <r_lp_tautomer_probability>
1

> <r_epik_Ionization_Penalty>
0.313249

> <r_epik_Ionization_Penalty_Charging>
0.00596667

> <r_epik_Ionization_Penalty_Neutral>
0.307283

> <r_epik_State_Penalty>
0.301121

> <r_epik_Charging_Adjusted_Penalty>
0.307088

> <i_epik_Tot_Q>
2

> <i_epik_Tot_abs_Q>
2

> <s_lp_Force_Field>
S-OPLS

> <r_lp_Energy>
79.886

> <b_lp_Chiralities_Consistent>
1

> <s_lp_Variant>
ligprep_h3d.sdf:5457-1

> <ROCS_ShapeQuery>
_7L13

> <ROCS_TanimotoCombo>
0.803 

> <ROCS_ShapeTanimoto>
0.669 

> <ROCS_ColorTanimoto>
0.134 

> <ROCS_RefTversky>
0.760 

> <ROCS_RefColorTversky>
0.260 

> <ROCS_RefTverskyCombo>
1.019 

> <ROCS_FitTversky>
0.849 

> <ROCS_FitColorTversky>
0.216 

> <ROCS_FitTverskyCombo>
1.065 

> <ROCS_ColorScore>
-2.363

> <ROCS_Overlap>
1253.988

> <ROCS_Rank>
764                 

$$$$
ligprep_h3d.sdf:2550_345
  -OEChem-08212117123D

 45 49  0     0  0  0  0  0  0999 V2000
  -23.2308   -2.7175  -30.3458 C   0  0  0  0  0  0  0  0  0  0  0  0
  -23.6562   -3.0140  -31.6407 C   0  0  0  0  0  0  0  0  0  0  0  0
  -21.5248   -3.5771  -24.3899 C   0  0  0  0  0  0  0  0  0  0  0  0
  -22.1312   -3.3827  -29.8033 C   0  0  0  0  0  0  0  0  0  0  0  0
  -22.9821   -3.9759  -32.3931 C   0  0  0  0  0  0  0  0  0  0  0  0
  -22.4201   -3.3721  -23.3345 C   0  0  0  0  0  0  0  0  0  0  0  0
  -23.1373   -4.9497  -25.6068 C   0  0  0  0  0  0  0  0  0  0  0  0
  -16.9565   -4.7223  -27.1428 C   0  0  0  0  0  0  0  0  0  0  0  0
  -19.5173   -4.5541  -26.4604 C   0  0  0  0  0  0  0  0  0  0  0  0
  -21.8739   -4.3498  -25.5044 C   0  0  0  0  0  0  0  0  0  0  0  0
  -21.4572   -4.3445  -30.5558 C   0  0  0  0  0  0  0  0  0  0  0  0
  -21.8825   -4.6411  -31.8507 C   0  0  0  0  0  0  0  0  0  0  0  0
  -24.0465   -4.7542  -24.5574 C   0  0  0  0  0  0  0  0  0  0  0  0
  -23.6609   -3.9820  -23.4716 C   0  0  0  0  0  0  0  0  0  0  0  0
  -20.9206   -4.5323  -26.5643 C   0  0  0  0  0  0  0  0  0  0  0  0
  -19.0830   -4.7565  -27.7587 C   0  0  0  0  0  0  0  0  0  0  0  0
  -18.5400   -4.4352  -25.4780 C   0  0  0  0  0  0  0  0  0  0  0  0
  -25.6649   -4.6949  -23.2062 C   0  0  0  0  0  0  0  0  0  0  0  0
  -20.2729   -5.0484  -29.9504 C   0  0  0  0  0  0  0  0  0  0  0  0
  -21.1772   -5.6675  -32.6751 C   0  0  0  0  0  0  0  0  0  0  0  0
  -17.8119   -4.8519  -28.1798 N   0  0  0  0  0  0  0  0  0  0  0  0
  -17.2355   -4.5221  -25.8327 N   0  0  0  0  0  0  0  0  0  0  0  0
  -25.3317   -5.2032  -24.3723 N   0  0  0  0  0  0  0  0  0  0  0  0
  -21.3482   -4.7058  -27.8198 N   0  0  0  0  0  0  0  0  0  0  0  0
  -20.2085   -4.8391  -28.5234 N   0  0  0  0  0  0  0  0  0  0  0  0
  -18.8813   -4.2264  -24.1295 N   0  0  0  0  0  0  0  0  0  0  0  0
  -26.8302   -4.8181  -22.5302 N   0  0  0  0  0  0  0  0  0  0  0  0
  -24.7075   -3.9422  -22.5954 O   0  0  0  0  0  0  0  0  0  0  0  0
  -21.7197   -5.8371  -33.9162 F   0  0  0  0  0  0  0  0  0  0  0  0
  -19.8615   -5.3782  -32.8961 F   0  0  0  0  0  0  0  0  0  0  0  0
  -21.1902   -6.9025  -32.0961 F   0  0  0  0  0  0  0  0  0  0  0  0
  -23.7564   -1.9692  -29.7601 H   0  0  0  0  0  0  0  0  0  0  0  0
  -24.5126   -2.4959  -32.0623 H   0  0  0  0  0  0  0  0  0  0  0  0
  -20.5391   -3.1192  -24.3270 H   0  0  0  0  0  0  0  0  0  0  0  0
  -21.8087   -3.1455  -28.7929 H   0  0  0  0  0  0  0  0  0  0  0  0
  -23.3209   -4.1996  -33.4013 H   0  0  0  0  0  0  0  0  0  0  0  0
  -22.1598   -2.7768  -22.4683 H   0  0  0  0  0  0  0  0  0  0  0  0
  -23.4124   -5.5509  -26.4684 H   0  0  0  0  0  0  0  0  0  0  0  0
  -15.9027   -4.7850  -27.3927 H   0  0  0  0  0  0  0  0  0  0  0  0
  -20.3161   -6.1283  -30.1372 H   0  0  0  0  0  0  0  0  0  0  0  0
  -19.3333   -4.6939  -30.3914 H   0  0  0  0  0  0  0  0  0  0  0  0
  -19.8445   -4.1150  -23.8777 H   0  0  0  0  0  0  0  0  0  0  0  0
  -18.1539   -4.0978  -23.4527 H   0  0  0  0  0  0  0  0  0  0  0  0
  -27.6365   -5.3247  -22.9209 H   0  0  0  0  0  0  0  0  0  0  0  0
  -26.9968   -4.3329  -21.6379 H   0  0  0  0  0  0  0  0  0  0  0  0
  1  2  2  0  0  0  0
  1  4  1  0  0  0  0
  2  5  1  0  0  0  0
  3  6  1  0  0  0  0
  3 10  2  0  0  0  0
  4 11  2  0  0  0  0
  5 12  2  0  0  0  0
  6 14  2  0  0  0  0
  7 10  1  0  0  0  0
  7 13  2  0  0  0  0
  8 21  1  0  0  0  0
  8 22  2  0  0  0  0
  9 15  1  0  0  0  0
  9 16  1  0  0  0  0
  9 17  2  0  0  0  0
 10 15  1  0  0  0  0
 11 12  1  0  0  0  0
 11 19  1  0  0  0  0
 12 20  1  0  0  0  0
 13 14  1  0  0  0  0
 13 23  1  0  0  0  0
 14 28  1  0  0  0  0
 15 24  2  0  0  0  0
 16 21  2  0  0  0  0
 16 25  1  0  0  0  0
 17 22  1  0  0  0  0
 17 26  1  0  0  0  0
 18 23  2  0  0  0  0
 18 27  1  0  0  0  0
 18 28  1  0  0  0  0
 19 25  1  0  0  0  0
 20 29  1  0  0  0  0
 20 30  1  0  0  0  0
 20 31  1  0  0  0  0
 24 25  1  0  0  0  0
  1 32  1  0  0  0  0
  2 33  1  0  0  0  0
  3 34  1  0  0  0  0
  4 35  1  0  0  0  0
  5 36  1  0  0  0  0
  6 37  1  0  0  0  0
  7 38  1  0  0  0  0
  8 39  1  0  0  0  0
 19 40  1  0  0  0  0
 19 41  1  0  0  0  0
 26 42  1  0  0  0  0
 26 43  1  0  0  0  0
 27 44  1  0  0  0  0
 27 45  1  0  0  0  0
M  END
> <SMILES>
Nc1nc2cc(ccc2o1)-c1nn(c2ncnc(c12)N)Cc1ccccc1C(F)(F)F

> <FORMATTED_ID>
H3D-006730

> <MOLFORMULA>
C20H14F3N7O

> <Exact Mass>
425.12

> <XLogP>
4.67

> <TPSA_NOPS>
122

> <s_m_source_file>
ligprep_h3d.sdf

> <i_m_source_file_index>
2550

> <i_lp_mmshare_version>
55123

> <i_f3d_flags>
0

> <s_epik_input>
W05IMl1jKG4xKW9jKGMxMilbY0hdW2NIXWMoW2NIXTIpLWMoYyhjMzQpYyhbTkgyXSluW2NIXW40KW5uM1tDSDJdYzVbY0hdW2NIXVtjSF1bY0hdYzVDKEYpKEYpRg==

> <s_epik_cmdline>
J2VwaWtfcHl0aG9uJywgJy1waHQnLCAnMC41JywgJy1waCcsICc3LjUnLCAnLXRuJywgJzgnLCAnLW1hJywgJzUwMCcsICctaW1hZScsICc8aW5maWxlLm1hZT4nLCAnLW9tYWUnLCAnPG91dGZpbGUubWFlPic=

> <r_lp_tautomer_probability>
1

> <r_epik_Ionization_Penalty>
0.000195885

> <r_epik_Ionization_Penalty_Charging>
0

> <r_epik_Ionization_Penalty_Neutral>
0.000195885

> <r_epik_State_Penalty>
-0

> <r_epik_Charging_Adjusted_Penalty>
0

> <i_epik_Tot_Q>
0

> <i_epik_Tot_abs_Q>
0

> <s_lp_Force_Field>
S-OPLS

> <r_lp_Energy>
28.7835

> <b_lp_Chiralities_Consistent>
1

> <s_lp_Variant>
ligprep_h3d.sdf:2550-1

> <ROCS_ShapeQuery>
_7L13

> <ROCS_TanimotoCombo>
0.821 

> <ROCS_ShapeTanimoto>
0.660 

> <ROCS_ColorTanimoto>
0.161 

> <ROCS_RefTversky>
0.759 

> <ROCS_RefColorTversky>
0.332 

> <ROCS_RefTverskyCombo>
1.092 

> <ROCS_FitTversky>
0.834 

> <ROCS_FitColorTversky>
0.238 

> <ROCS_FitTverskyCombo>
1.072 

> <ROCS_ColorScore>
-3.059

> <ROCS_Overlap>
1254.956

> <ROCS_Rank>
765                 

$$$$
ligprep_h3d.sdf:5117_141
  -OEChem-08212117123D

 64 68  0     0  0  0  0  0  0999 V2000
  -19.2414   -5.5647  -34.8035 C   0  0  0  0  0  0  0  0  0  0  0  0
  -20.2237   -6.5016  -34.4827 C   0  0  0  0  0  0  0  0  0  0  0  0
  -19.1787   -4.3552  -34.1116 C   0  0  0  0  0  0  0  0  0  0  0  0
  -21.1433   -6.2290  -33.4700 C   0  0  0  0  0  0  0  0  0  0  0  0
  -20.0984   -4.0825  -33.0989 C   0  0  0  0  0  0  0  0  0  0  0  0
  -18.7155   -6.2521  -25.3868 C   0  0  0  0  0  0  0  0  0  0  0  0
  -23.6361   -3.9438  -27.7717 C   0  0  0  0  0  0  0  0  0  0  0  0
  -20.9371   -4.3719  -28.4498 C   0  0  0  0  0  0  0  0  0  0  0  0
  -17.3491   -6.3677  -25.1887 C   0  0  0  0  0  0  0  0  0  0  0  0
  -16.9905   -4.1707  -25.7568 C   0  0  0  0  0  0  0  0  0  0  0  0
  -22.7034   -4.3066  -26.8074 C   0  0  0  0  0  0  0  0  0  0  0  0
  -21.0807   -5.0194  -32.7780 C   0  0  0  0  0  0  0  0  0  0  0  0
  -18.3401   -3.9522  -25.9818 C   0  0  0  0  0  0  0  0  0  0  0  0
  -19.2125   -5.0179  -25.7909 C   0  0  0  0  0  0  0  0  0  0  0  0
  -21.3532   -4.5052  -27.1309 C   0  0  0  0  0  0  0  0  0  0  0  0
  -23.2108   -3.7977  -29.0905 C   0  0  0  0  0  0  0  0  0  0  0  0
  -21.8704   -4.0147  -29.4280 C   0  0  0  0  0  0  0  0  0  0  0  0
  -23.0741   -3.1414  -24.6232 C   0  0  0  0  0  0  0  0  0  0  0  0
  -24.1207   -5.4089  -25.0086 C   0  0  0  0  0  0  0  0  0  0  0  0
  -21.5683   -5.2008  -24.9499 C   0  0  0  0  0  0  0  0  0  0  0  0
  -23.3738   -3.2639  -23.1326 C   0  0  0  0  0  0  0  0  0  0  0  0
  -24.3685   -5.5362  -23.5111 C   0  0  0  0  0  0  0  0  0  0  0  0
  -22.9162   -4.5060  -25.3265 C   0  0  0  0  0  0  0  0  0  0  0  0
  -18.8150   -2.6077  -26.4139 C   0  0  0  0  0  0  0  0  0  0  0  0
  -24.9618   -4.2294  -21.4732 C   0  0  0  0  0  0  0  0  0  0  0  0
  -24.2904   -2.0488  -30.2870 C   0  0  0  0  0  0  0  0  0  0  0  0
  -22.0698   -4.7254  -31.6887 C   0  0  0  0  0  0  0  0  0  0  0  0
  -16.4706   -5.3552  -25.3639 N   0  0  0  0  0  0  0  0  0  0  0  0
  -20.5865   -4.8664  -25.9999 N   0  0  0  0  0  0  0  0  0  0  0  0
  -24.5683   -4.1605  -22.9235 N   0  3  0  0  0  0  0  0  0  0  0  0
  -24.1141   -3.4434  -30.0477 O   0  0  0  0  0  0  0  0  0  0  0  0
  -21.4572   -3.8772  -30.7205 O   0  0  0  0  0  0  0  0  0  0  0  0
  -18.5246   -5.7778  -35.5911 H   0  0  0  0  0  0  0  0  0  0  0  0
  -20.2720   -7.4440  -35.0206 H   0  0  0  0  0  0  0  0  0  0  0  0
  -18.4134   -3.6260  -34.3603 H   0  0  0  0  0  0  0  0  0  0  0  0
  -21.9054   -6.9648  -33.2269 H   0  0  0  0  0  0  0  0  0  0  0  0
  -20.0420   -3.1374  -32.5652 H   0  0  0  0  0  0  0  0  0  0  0  0
  -19.3677   -7.1044  -25.2284 H   0  0  0  0  0  0  0  0  0  0  0  0
  -24.6743   -3.7716  -27.5065 H   0  0  0  0  0  0  0  0  0  0  0  0
  -19.8988   -4.5362  -28.7234 H   0  0  0  0  0  0  0  0  0  0  0  0
  -16.9110   -7.3087  -24.8728 H   0  0  0  0  0  0  0  0  0  0  0  0
  -16.2615   -3.3773  -25.8895 H   0  0  0  0  0  0  0  0  0  0  0  0
  -23.8891   -2.5749  -25.0948 H   0  0  0  0  0  0  0  0  0  0  0  0
  -22.1709   -2.5314  -24.7550 H   0  0  0  0  0  0  0  0  0  0  0  0
  -23.9790   -6.4085  -25.4392 H   0  0  0  0  0  0  0  0  0  0  0  0
  -25.0298   -5.0095  -25.4774 H   0  0  0  0  0  0  0  0  0  0  0  0
  -21.1988   -4.8935  -23.9655 H   0  0  0  0  0  0  0  0  0  0  0  0
  -21.6911   -6.2929  -24.9254 H   0  0  0  0  0  0  0  0  0  0  0  0
  -22.5358   -3.6901  -22.5717 H   0  0  0  0  0  0  0  0  0  0  0  0
  -23.6235   -2.2835  -22.7132 H   0  0  0  0  0  0  0  0  0  0  0  0
  -25.2827   -6.1088  -23.3227 H   0  0  0  0  0  0  0  0  0  0  0  0
  -23.5297   -6.0070  -22.9872 H   0  0  0  0  0  0  0  0  0  0  0  0
  -18.8176   -2.5357  -27.5089 H   0  0  0  0  0  0  0  0  0  0  0  0
  -19.8319   -2.4070  -26.0509 H   0  0  0  0  0  0  0  0  0  0  0  0
  -18.1737   -1.8100  -26.0154 H   0  0  0  0  0  0  0  0  0  0  0  0
  -24.1348   -4.6833  -20.9241 H   0  0  0  0  0  0  0  0  0  0  0  0
  -25.1494   -3.2106  -21.1291 H   0  0  0  0  0  0  0  0  0  0  0  0
  -25.8635   -4.8406  -21.4004 H   0  0  0  0  0  0  0  0  0  0  0  0
  -25.0367   -1.9046  -31.0721 H   0  0  0  0  0  0  0  0  0  0  0  0
  -23.3377   -1.6068  -30.5896 H   0  0  0  0  0  0  0  0  0  0  0  0
  -24.6356   -1.5711  -29.3671 H   0  0  0  0  0  0  0  0  0  0  0  0
  -22.9579   -4.2257  -32.0904 H   0  0  0  0  0  0  0  0  0  0  0  0
  -22.3959   -5.6504  -31.2010 H   0  0  0  0  0  0  0  0  0  0  0  0
  -25.3618   -3.7303  -23.4183 H   0  0  0  0  0  0  0  0  0  0  0  0
  1  2  2  0  0  0  0
  1  3  1  0  0  0  0
  2  4  1  0  0  0  0
  3  5  2  0  0  0  0
  4 12  2  0  0  0  0
  5 12  1  0  0  0  0
  6  9  1  0  0  0  0
  6 14  2  0  0  0  0
  7 11  1  0  0  0  0
  7 16  2  0  0  0  0
  8 15  1  0  0  0  0
  8 17  2  0  0  0  0
  9 28  2  0  0  0  0
 10 13  2  0  0  0  0
 10 28  1  0  0  0  0
 11 15  2  0  0  0  0
 11 23  1  0  0  0  0
 12 27  1  0  0  0  0
 13 14  1  0  0  0  0
 13 24  1  0  0  0  0
 14 29  1  0  0  0  0
 15 29  1  0  0  0  0
 16 17  1  0  0  0  0
 16 31  1  0  0  0  0
 17 32  1  0  0  0  0
 18 21  1  0  0  0  0
 18 23  1  0  0  0  0
 19 22  1  0  0  0  0
 19 23  1  0  0  0  0
 20 23  1  0  0  0  0
 20 29  1  0  0  0  0
 21 30  1  0  0  0  0
 22 30  1  0  0  0  0
 25 30  1  0  0  0  0
 26 31  1  0  0  0  0
 27 32  1  0  0  0  0
  1 33  1  0  0  0  0
  2 34  1  0  0  0  0
  3 35  1  0  0  0  0
  4 36  1  0  0  0  0
  5 37  1  0  0  0  0
  6 38  1  0  0  0  0
  7 39  1  0  0  0  0
  8 40  1  0  0  0  0
  9 41  1  0  0  0  0
 10 42  1  0  0  0  0
 18 43  1  0  0  0  0
 18 44  1  0  0  0  0
 19 45  1  0  0  0  0
 19 46  1  0  0  0  0
 20 47  1  0  0  0  0
 20 48  1  0  0  0  0
 21 49  1  0  0  0  0
 21 50  1  0  0  0  0
 22 51  1  0  0  0  0
 22 52  1  0  0  0  0
 24 53  1  0  0  0  0
 24 54  1  0  0  0  0
 24 55  1  0  0  0  0
 25 56  1  0  0  0  0
 25 57  1  0  0  0  0
 25 58  1  0  0  0  0
 26 59  1  0  0  0  0
 26 60  1  0  0  0  0
 26 61  1  0  0  0  0
 27 62  1  0  0  0  0
 27 63  1  0  0  0  0
 30 64  1  0  0  0  0
M  CHG  1  30   1
M  END
> <SMILES>
COc1cc2c(cc1OCc1ccccc1)N(CC12CCN(C)CC1)c1ccncc1C

> <FORMATTED_ID>
H3D-012652

> <MOLFORMULA>
C27H31N3O2

> <Exact Mass>
429.24

> <XLogP>
5.18

> <TPSA_NOPS>
37.8

> <s_m_source_file>
ligprep_h3d.sdf

> <i_m_source_file_index>
5117

> <i_lp_mmshare_version>
55123

> <i_f3d_flags>
0

> <s_epik_input>
W2NIXTFbY0hdW2NIXVtjSF1bY0hdYzFbQ0gyXU9jKGMoW2NIXTIpT1tDSDNdKVtjSF1jKGMyQzM0W0NIMl1bQ0gyXU4oW0NIM10pW0NIMl1bQ0gyXTQpTihbQ0gyXTMpYzVbY0hdW2NIXW5bY0hdYzVbQ0gzXQ==

> <s_epik_cmdline>
J2VwaWtfcHl0aG9uJywgJy1waHQnLCAnMC41JywgJy1waCcsICc3LjUnLCAnLXRuJywgJzgnLCAnLW1hJywgJzUwMCcsICctaW1hZScsICc8aW5maWxlLm1hZT4nLCAnLW9tYWUnLCAnPG91dGZpbGUubWFlPic=

> <r_lp_tautomer_probability>
1

> <r_epik_Ionization_Penalty>
0.223957

> <r_epik_Ionization_Penalty_Charging>
0.00689193

> <r_epik_Ionization_Penalty_Neutral>
0.217065

> <r_epik_State_Penalty>
0.207311

> <r_epik_Charging_Adjusted_Penalty>
0.214203

> <i_epik_Tot_Q>
1

> <i_epik_Tot_abs_Q>
1

> <s_lp_Force_Field>
S-OPLS

> <r_lp_Energy>
72.898

> <b_lp_Chiralities_Consistent>
1

> <s_lp_Variant>
ligprep_h3d.sdf:5117-1

> <ROCS_ShapeQuery>
_7L13

> <ROCS_TanimotoCombo>
0.778 

> <ROCS_ShapeTanimoto>
0.670 

> <ROCS_ColorTanimoto>
0.109 

> <ROCS_RefTversky>
0.759 

> <ROCS_RefColorTversky>
0.206 

> <ROCS_RefTverskyCombo>
0.965 

> <ROCS_FitTversky>
0.850 

> <ROCS_FitColorTversky>
0.187 

> <ROCS_FitTverskyCombo>
1.037 

> <ROCS_ColorScore>
-1.862

> <ROCS_Overlap>
1253.757

> <ROCS_Rank>
766                 

$$$$
ligprep_h3d.sdf:2327_521
  -OEChem-08212117123D

 68 73  0     1  0  0  0  0  0999 V2000
  -26.2726   -3.2781  -22.3248 C   0  0  0  0  0  0  0  0  0  0  0  0
  -19.1543   -5.4364  -23.9726 C   0  0  0  0  0  0  0  0  0  0  0  0
  -18.2349   -4.5855  -24.6224 C   0  0  0  0  0  0  0  0  0  0  0  0
  -25.7126   -5.2593  -23.6444 C   0  0  0  0  0  0  0  0  0  0  0  0
  -24.4227   -3.2356  -23.9233 C   0  0  0  0  0  0  0  0  0  0  0  0
  -18.6253   -6.6147  -35.7740 C   0  0  0  0  0  0  0  0  0  0  0  0
  -20.3930   -8.2540  -35.9328 C   0  0  0  0  0  0  0  0  0  0  0  0
  -24.9225   -5.8949  -24.6022 C   0  0  0  0  0  0  0  0  0  0  0  0
  -23.6326   -3.8712  -24.8810 C   0  0  0  0  0  0  0  0  0  0  0  0
  -19.1618   -6.1526  -34.5723 C   0  0  0  0  0  0  0  0  0  0  0  0
  -20.9295   -7.7919  -34.7310 C   0  0  0  0  0  0  0  0  0  0  0  0
  -20.4187   -5.7103  -24.5135 C   0  0  0  0  0  0  0  0  0  0  0  0
  -18.5349   -3.9671  -25.8446 C   0  0  0  0  0  0  0  0  0  0  0  0
  -25.4627   -3.9296  -23.3049 C   0  0  0  0  0  0  0  0  0  0  0  0
  -19.2409   -7.6655  -36.4543 C   0  0  0  0  0  0  0  0  0  0  0  0
  -20.3139   -6.7411  -34.0508 C   0  0  0  0  0  0  0  0  0  0  0  0
  -23.8825   -5.2009  -25.2205 C   0  0  0  0  0  0  0  0  0  0  0  0
  -20.7015   -5.0904  -25.7249 C   0  0  0  0  0  0  0  0  0  0  0  0
  -19.7914   -4.2482  -26.3680 C   0  0  0  0  0  0  0  0  0  0  0  0
  -18.6861   -8.1434  -37.6971 C   0  0  0  0  0  0  0  0  0  0  0  0
  -18.0695   -9.1144  -39.4165 C   0  0  0  0  0  0  0  0  0  0  0  0
  -21.6326   -4.3648  -27.6092 C   0  0  0  0  0  0  0  0  0  0  0  0
  -23.5288   -2.9095  -30.5028 C   0  0  0  0  0  0  0  0  0  0  0  0
  -23.4379   -3.5669  -31.8755 C   0  0  0  0  0  0  0  0  0  0  0  0
  -21.4156   -4.0406  -30.8310 C   0  0  0  0  0  0  0  0  0  0  0  0
  -22.2383   -3.3004  -29.7834 C   0  0  2  0  0  0  0  0  0  0  0  0
  -17.9278  -10.1511  -40.4444 C   0  0  0  0  0  0  0  0  0  0  0  0
  -20.8945   -6.2407  -32.7510 C   0  0  0  0  0  0  0  0  0  0  0  0
  -23.0290   -5.8871  -26.2526 C   0  0  0  0  0  0  0  0  0  0  0  0
  -21.9145   -5.1216  -32.9461 C   0  0  0  0  0  0  0  0  0  0  0  0
  -26.9304   -2.7488  -21.5286 N   0  0  0  0  0  0  0  0  0  0  0  0
  -18.8561   -9.2850  -38.3147 N   0  0  0  0  0  0  0  0  0  0  0  0
  -17.4353   -7.9411  -39.5016 N   0  0  0  0  0  0  0  0  0  0  0  0
  -21.8216   -5.1304  -26.5296 N   0  0  0  0  0  0  0  0  0  0  0  0
  -20.4119   -3.8256  -27.5256 N   0  3  0  0  0  0  0  0  0  0  0  0
  -22.4493   -4.6275  -31.6860 N   0  0  2  0  0  0  0  0  0  0  0  0
  -22.5265   -4.1576  -28.6342 N   0  0  0  0  0  0  0  0  0  0  0  0
  -17.8523   -7.2828  -38.3378 O   0  0  0  0  0  0  0  0  0  0  0  0
  -18.8740   -5.8921  -23.0254 H   0  0  0  0  0  0  0  0  0  0  0  0
  -17.2660   -4.4051  -24.1619 H   0  0  0  0  0  0  0  0  0  0  0  0
  -26.5209   -5.8130  -23.1726 H   0  0  0  0  0  0  0  0  0  0  0  0
  -24.2141   -2.1991  -23.6685 H   0  0  0  0  0  0  0  0  0  0  0  0
  -17.7269   -6.1454  -36.1678 H   0  0  0  0  0  0  0  0  0  0  0  0
  -20.8842   -9.0742  -36.4511 H   0  0  0  0  0  0  0  0  0  0  0  0
  -25.1250   -6.9308  -24.8610 H   0  0  0  0  0  0  0  0  0  0  0  0
  -22.8232   -3.3232  -25.3562 H   0  0  0  0  0  0  0  0  0  0  0  0
  -18.6759   -5.3332  -34.0492 H   0  0  0  0  0  0  0  0  0  0  0  0
  -21.8274   -8.2566  -34.3324 H   0  0  0  0  0  0  0  0  0  0  0  0
  -21.1293   -6.3618  -24.0208 H   0  0  0  0  0  0  0  0  0  0  0  0
  -17.8392   -3.3119  -26.3530 H   0  0  0  0  0  0  0  0  0  0  0  0
  -23.6075   -1.8220  -30.6073 H   0  0  0  0  0  0  0  0  0  0  0  0
  -24.4116   -3.2610  -29.9565 H   0  0  0  0  0  0  0  0  0  0  0  0
  -24.4066   -3.9626  -32.1967 H   0  0  0  0  0  0  0  0  0  0  0  0
  -23.1038   -2.8271  -32.6144 H   0  0  0  0  0  0  0  0  0  0  0  0
  -20.7962   -3.3266  -31.3890 H   0  0  0  0  0  0  0  0  0  0  0  0
  -20.7672   -4.8051  -30.3911 H   0  0  0  0  0  0  0  0  0  0  0  0
  -21.7058   -2.4207  -29.4078 H   0  0  0  0  0  0  0  0  0  0  0  0
  -18.6887  -10.0422  -41.2392 H   0  0  0  0  0  0  0  0  0  0  0  0
  -16.9361  -10.1274  -40.9354 H   0  0  0  0  0  0  0  0  0  0  0  0
  -18.0299  -11.1731  -40.0313 H   0  0  0  0  0  0  0  0  0  0  0  0
  -20.0735   -5.8771  -32.1202 H   0  0  0  0  0  0  0  0  0  0  0  0
  -21.3498   -7.0752  -32.2023 H   0  0  0  0  0  0  0  0  0  0  0  0
  -22.7365   -6.8907  -25.9208 H   0  0  0  0  0  0  0  0  0  0  0  0
  -23.5751   -6.0179  -27.1947 H   0  0  0  0  0  0  0  0  0  0  0  0
  -21.4420   -4.2692  -33.4444 H   0  0  0  0  0  0  0  0  0  0  0  0
  -22.7611   -5.4488  -33.5586 H   0  0  0  0  0  0  0  0  0  0  0  0
  -20.0027   -3.1978  -28.2124 H   0  0  0  0  0  0  0  0  0  0  0  0
  -23.4258   -4.6064  -28.6102 H   0  0  0  0  0  0  0  0  0  0  0  0
  1 14  1  0  0  0  0
  1 31  3  0  0  0  0
  2  3  2  0  0  0  0
  2 12  1  0  0  0  0
  3 13  1  0  0  0  0
  4  8  1  0  0  0  0
  4 14  2  0  0  0  0
  5  9  2  0  0  0  0
  5 14  1  0  0  0  0
  6 10  1  0  0  0  0
  6 15  2  0  0  0  0
  7 11  2  0  0  0  0
  7 15  1  0  0  0  0
  8 17  2  0  0  0  0
  9 17  1  0  0  0  0
 10 16  2  0  0  0  0
 11 16  1  0  0  0  0
 12 18  2  0  0  0  0
 13 19  2  0  0  0  0
 15 20  1  0  0  0  0
 16 28  1  0  0  0  0
 17 29  1  0  0  0  0
 18 19  1  0  0  0  0
 18 34  1  0  0  0  0
 19 35  1  0  0  0  0
 20 32  2  0  0  0  0
 20 38  1  0  0  0  0
 21 27  1  0  0  0  0
 21 32  1  0  0  0  0
 21 33  2  0  0  0  0
 22 34  1  0  0  0  0
 22 35  2  0  0  0  0
 22 37  1  0  0  0  0
 23 24  1  0  0  0  0
 23 26  1  0  0  0  0
 24 36  1  0  0  0  0
 25 26  1  0  0  0  0
 25 36  1  0  0  0  0
 26 37  1  0  0  0  0
 28 30  1  0  0  0  0
 29 34  1  0  0  0  0
 30 36  1  0  0  0  0
 33 38  1  0  0  0  0
  2 39  1  0  0  0  0
  3 40  1  0  0  0  0
  4 41  1  0  0  0  0
  5 42  1  0  0  0  0
  6 43  1  0  0  0  0
  7 44  1  0  0  0  0
  8 45  1  0  0  0  0
  9 46  1  0  0  0  0
 10 47  1  0  0  0  0
 11 48  1  0  0  0  0
 12 49  1  0  0  0  0
 13 50  1  0  0  0  0
 23 51  1  0  0  0  0
 23 52  1  0  0  0  0
 24 53  1  0  0  0  0
 24 54  1  0  0  0  0
 25 55  1  0  0  0  0
 25 56  1  0  0  0  0
 26 57  1  0  0  0  0
 27 58  1  0  0  0  0
 27 59  1  0  0  0  0
 27 60  1  0  0  0  0
 28 61  1  0  0  0  0
 28 62  1  0  0  0  0
 29 63  1  0  0  0  0
 29 64  1  0  0  0  0
 30 65  1  0  0  0  0
 30 66  1  0  0  0  0
 35 67  1  0  0  0  0
 37 68  1  0  0  0  0
M  CHG  1  35   1
M  END
> <SMILES>
Cc1noc(n1)-c1ccc(cc1)CCN1CC[C@H](C1)Nc1nc2ccccc2n1Cc1ccc(cc1)C#N

> <FORMATTED_ID>
H3D-005385

> <MOLFORMULA>
C30H29N7O

> <Exact Mass>
503.24

> <XLogP>
6.75

> <TPSA_NOPS>
96.1

> <s_m_source_file>
ligprep_h3d.sdf

> <i_m_source_file_index>
2327

> <i_lp_mmshare_version>
55123

> <i_f3d_flags>
0

> <s_epik_input>
W0NIM11jMW5vYyhuMSktYzJbY0hdW2NIXWMoW2NIXVtjSF0yKVtDSDJdW0NIMl1OM1tDSDJdW0NIMl1bQ0BIXShbQ0gyXTMpW05IXWMobjQpbihjKGM0NSlbY0hdW2NIXVtjSF1bY0hdNSlbQ0gyXWM2W2NIXVtjSF1jKEMjTilbY0hdW2NIXTY=

> <s_epik_cmdline>
J2VwaWtfcHl0aG9uJywgJy1waHQnLCAnMC41JywgJy1waCcsICc3LjUnLCAnLXRuJywgJzgnLCAnLW1hJywgJzUwMCcsICctaW1hZScsICc8aW5maWxlLm1hZT4nLCAnLW9tYWUnLCAnPG91dGZpbGUubWFlPic=

> <r_lp_tautomer_probability>
1

> <r_epik_Ionization_Penalty>
0.515299

> <r_epik_Ionization_Penalty_Charging>
0.515084

> <r_epik_Ionization_Penalty_Neutral>
0.000214177

> <r_epik_State_Penalty>
0.522643

> <r_epik_Charging_Adjusted_Penalty>
1.03773

> <i_epik_Tot_Q>
1

> <i_epik_Tot_abs_Q>
1

> <s_lp_Force_Field>
S-OPLS

> <r_lp_Energy>
32.0907

> <b_lp_Chiralities_Consistent>
1

> <s_lp_Variant>
ligprep_h3d.sdf:2327-2

> <ROCS_ShapeQuery>
_7L13

> <ROCS_TanimotoCombo>
0.719 

> <ROCS_ShapeTanimoto>
0.584 

> <ROCS_ColorTanimoto>
0.135 

> <ROCS_RefTversky>
0.759 

> <ROCS_RefColorTversky>
0.285 

> <ROCS_RefTverskyCombo>
1.044 

> <ROCS_FitTversky>
0.717 

> <ROCS_FitColorTversky>
0.204 

> <ROCS_FitTverskyCombo>
0.921 

> <ROCS_ColorScore>
-2.618

> <ROCS_Overlap>
1265.245

> <ROCS_Rank>
767                 

$$$$
ligprep_h3d.sdf:4668_1744
  -OEChem-08212117123D

 61 65  0     1  0  0  0  0  0999 V2000
  -15.1015   -5.5230  -24.9365 C   0  0  0  0  0  0  0  0  0  0  0  0
  -24.9656   -5.0409  -22.5657 C   0  0  0  0  0  0  0  0  0  0  0  0
  -15.8240   -6.5831  -25.4841 C   0  0  0  0  0  0  0  0  0  0  0  0
  -15.6314   -4.2329  -24.9582 C   0  0  0  0  0  0  0  0  0  0  0  0
  -23.6476   -4.8108  -22.9599 C   0  0  0  0  0  0  0  0  0  0  0  0
  -26.0124   -4.7944  -23.4541 C   0  0  0  0  0  0  0  0  0  0  0  0
  -20.0115   -4.2933  -34.1424 C   0  0  0  0  0  0  0  0  0  0  0  0
  -20.3831   -6.1631  -32.6582 C   0  0  0  0  0  0  0  0  0  0  0  0
  -17.0764   -6.3530  -26.0534 C   0  0  0  0  0  0  0  0  0  0  0  0
  -16.8838   -4.0028  -25.5276 C   0  0  0  0  0  0  0  0  0  0  0  0
  -23.3762   -4.3341  -24.2424 C   0  0  0  0  0  0  0  0  0  0  0  0
  -25.7411   -4.3177  -24.7366 C   0  0  0  0  0  0  0  0  0  0  0  0
  -19.5129   -5.1625  -35.1126 C   0  0  0  0  0  0  0  0  0  0  0  0
  -19.8845   -7.0324  -33.6285 C   0  0  0  0  0  0  0  0  0  0  0  0
  -20.4465   -4.7936  -32.9151 C   0  0  0  0  0  0  0  0  0  0  0  0
  -17.6063   -5.0629  -26.0752 C   0  0  0  0  0  0  0  0  0  0  0  0
  -24.4230   -4.0876  -25.1308 C   0  0  0  0  0  0  0  0  0  0  0  0
  -19.4494   -6.5320  -34.8558 C   0  0  0  0  0  0  0  0  0  0  0  0
  -22.0161   -4.5203  -30.9944 C   0  0  0  0  0  0  0  0  0  0  0  0
  -22.6426   -5.1380  -28.6754 C   0  0  0  0  0  0  0  0  0  0  0  0
  -19.7990   -5.7109  -27.2648 C   0  0  0  0  0  0  0  0  0  0  0  0
  -19.7809   -3.7496  -26.5105 C   0  0  0  0  0  0  0  0  0  0  0  0
  -20.5423   -3.9618  -29.0093 C   0  0  0  0  0  0  0  0  0  0  0  0
  -22.1656   -4.6532  -27.3100 C   0  0  1  0  0  0  0  0  0  0  0  0
  -20.6678   -4.4568  -27.5646 C   0  0  0  0  0  0  0  0  0  0  0  0
  -20.9832   -3.8592  -31.8720 C   0  0  0  0  0  0  0  0  0  0  0  0
  -22.8451   -3.3435  -26.9147 C   0  0  0  0  0  0  0  0  0  0  0  0
  -18.8650   -4.8313  -26.6473 N   0  0  0  0  0  0  0  0  0  0  0  0
  -21.7342   -4.5269  -29.6376 N   0  0  0  0  0  0  0  0  0  0  0  0
  -24.1516   -3.6104  -26.4152 N   0  0  0  0  0  0  0  0  0  0  0  0
  -23.0292   -5.0158  -31.4908 O   0  0  0  0  0  0  0  0  0  0  0  0
  -18.9640   -7.3802  -35.8032 O   0  0  0  0  0  0  0  0  0  0  0  0
  -14.1261   -5.7023  -24.4933 H   0  0  0  0  0  0  0  0  0  0  0  0
  -25.1768   -5.4119  -21.5669 H   0  0  0  0  0  0  0  0  0  0  0  0
  -15.4113   -7.5873  -25.4672 H   0  0  0  0  0  0  0  0  0  0  0  0
  -15.0685   -3.4075  -24.5318 H   0  0  0  0  0  0  0  0  0  0  0  0
  -22.8328   -5.0026  -22.2682 H   0  0  0  0  0  0  0  0  0  0  0  0
  -27.0388   -4.9736  -23.1470 H   0  0  0  0  0  0  0  0  0  0  0  0
  -20.0572   -3.2278  -34.3510 H   0  0  0  0  0  0  0  0  0  0  0  0
  -20.7197   -6.5619  -31.7047 H   0  0  0  0  0  0  0  0  0  0  0  0
  -17.6313   -7.1859  -26.4776 H   0  0  0  0  0  0  0  0  0  0  0  0
  -17.2868   -2.9933  -25.5387 H   0  0  0  0  0  0  0  0  0  0  0  0
  -22.3457   -4.1580  -24.5397 H   0  0  0  0  0  0  0  0  0  0  0  0
  -26.5649   -4.1295  -25.4205 H   0  0  0  0  0  0  0  0  0  0  0  0
  -19.1757   -4.7667  -36.0670 H   0  0  0  0  0  0  0  0  0  0  0  0
  -19.8380   -8.0980  -33.4225 H   0  0  0  0  0  0  0  0  0  0  0  0
  -22.5199   -6.2234  -28.7698 H   0  0  0  0  0  0  0  0  0  0  0  0
  -23.6838   -4.8890  -28.9033 H   0  0  0  0  0  0  0  0  0  0  0  0
  -20.2261   -6.4269  -26.5539 H   0  0  0  0  0  0  0  0  0  0  0  0
  -19.3846   -6.2447  -28.1242 H   0  0  0  0  0  0  0  0  0  0  0  0
  -19.3549   -2.7859  -26.8007 H   0  0  0  0  0  0  0  0  0  0  0  0
  -20.2025   -3.6896  -25.5016 H   0  0  0  0  0  0  0  0  0  0  0  0
  -20.6139   -2.8710  -29.0742 H   0  0  0  0  0  0  0  0  0  0  0  0
  -19.6348   -4.2969  -29.5196 H   0  0  0  0  0  0  0  0  0  0  0  0
  -22.3629   -5.4026  -26.5355 H   0  0  0  0  0  0  0  0  0  0  0  0
  -20.1718   -3.4947  -31.2396 H   0  0  0  0  0  0  0  0  0  0  0  0
  -21.4358   -2.9809  -32.3347 H   0  0  0  0  0  0  0  0  0  0  0  0
  -22.2281   -2.8792  -26.1475 H   0  0  0  0  0  0  0  0  0  0  0  0
  -22.8948   -2.7238  -27.8082 H   0  0  0  0  0  0  0  0  0  0  0  0
  -24.9590   -3.4468  -27.0224 H   0  0  0  0  0  0  0  0  0  0  0  0
  -18.9836   -8.2944  -35.4780 H   0  0  0  0  0  0  0  0  0  0  0  0
  1  3  2  0  0  0  0
  1  4  1  0  0  0  0
  2  5  2  0  0  0  0
  2  6  1  0  0  0  0
  3  9  1  0  0  0  0
  4 10  2  0  0  0  0
  5 11  1  0  0  0  0
  6 12  2  0  0  0  0
  7 13  1  0  0  0  0
  7 15  2  0  0  0  0
  8 14  2  0  0  0  0
  8 15  1  0  0  0  0
  9 16  2  0  0  0  0
 10 16  1  0  0  0  0
 11 17  2  0  0  0  0
 12 17  1  0  0  0  0
 13 18  2  0  0  0  0
 14 18  1  0  0  0  0
 15 26  1  0  0  0  0
 16 28  1  0  0  0  0
 17 30  1  0  0  0  0
 18 32  1  0  0  0  0
 19 26  1  0  0  0  0
 19 29  1  0  0  0  0
 19 31  2  0  0  0  0
 20 24  1  0  0  0  0
 20 29  1  0  0  0  0
 21 25  1  0  0  0  0
 21 28  1  0  0  0  0
 22 25  1  0  0  0  0
 22 28  1  0  0  0  0
 23 25  1  0  0  0  0
 23 29  1  0  0  0  0
 24 25  1  0  0  0  0
 24 27  1  0  0  0  0
 27 30  1  0  0  0  0
  1 33  1  0  0  0  0
  2 34  1  0  0  0  0
  3 35  1  0  0  0  0
  4 36  1  0  0  0  0
  5 37  1  0  0  0  0
  6 38  1  0  0  0  0
  7 39  1  0  0  0  0
  8 40  1  0  0  0  0
  9 41  1  0  0  0  0
 10 42  1  0  0  0  0
 11 43  1  0  0  0  0
 12 44  1  0  0  0  0
 13 45  1  0  0  0  0
 14 46  1  0  0  0  0
 20 47  1  0  0  0  0
 20 48  1  0  0  0  0
 21 49  1  0  0  0  0
 21 50  1  0  0  0  0
 22 51  1  0  0  0  0
 22 52  1  0  0  0  0
 23 53  1  0  0  0  0
 23 54  1  0  0  0  0
 24 55  1  0  0  0  0
 26 56  1  0  0  0  0
 26 57  1  0  0  0  0
 27 58  1  0  0  0  0
 27 59  1  0  0  0  0
 30 60  1  0  0  0  0
 32 61  1  0  0  0  0
M  END
> <SMILES>
Oc1ccc(cc1)CC(=O)N1C[C@H](CNc2ccccc2)C2(C1)CN(C2)c1ccccc1

> <FORMATTED_ID>
H3D-005822

> <MOLFORMULA>
C27H29N3O2

> <Exact Mass>
427.23

> <XLogP>
3.82

> <TPSA_NOPS>
55.8

> <s_m_source_file>
ligprep_h3d.sdf

> <i_m_source_file_index>
4668

> <i_lp_mmshare_version>
55123

> <i_f3d_flags>
0

> <s_epik_input>
W09IXWMxW2NIXVtjSF1jKFtjSF1bY0hdMSlbQ0gyXUMoPU8pTihbQ0gyXTIpW0NIMl1bQ0BIXShbQ0gyXVtOSF1jM1tjSF1bY0hdW2NIXVtjSF1bY0hdMylDMjRbQ0gyXU4oW0NIMl00KWM1W2NIXVtjSF1bY0hdW2NIXVtjSF01

> <s_epik_cmdline>
J2VwaWtfcHl0aG9uJywgJy1waHQnLCAnMC41JywgJy1waCcsICc3LjUnLCAnLXRuJywgJzgnLCAnLW1hJywgJzUwMCcsICctaW1hZScsICc8aW5maWxlLm1hZT4nLCAnLW9tYWUnLCAnPG91dGZpbGUubWFlPic=

> <r_lp_tautomer_probability>
1

> <r_epik_Ionization_Penalty>
0.00593126

> <r_epik_Ionization_Penalty_Charging>
0

> <r_epik_Ionization_Penalty_Neutral>
0.00593126

> <r_epik_State_Penalty>
-0

> <r_epik_Charging_Adjusted_Penalty>
0

> <i_epik_Tot_Q>
0

> <i_epik_Tot_abs_Q>
0

> <s_lp_Force_Field>
S-OPLS

> <r_lp_Energy>
45.3904

> <b_lp_Chiralities_Consistent>
1

> <s_lp_Variant>
ligprep_h3d.sdf:4668-1

> <ROCS_ShapeQuery>
_7L13

> <ROCS_TanimotoCombo>
0.738 

> <ROCS_ShapeTanimoto>
0.671 

> <ROCS_ColorTanimoto>
0.067 

> <ROCS_RefTversky>
0.759 

> <ROCS_RefColorTversky>
0.125 

> <ROCS_RefTverskyCombo>
0.884 

> <ROCS_FitTversky>
0.852 

> <ROCS_FitColorTversky>
0.125 

> <ROCS_FitTverskyCombo>
0.977 

> <ROCS_ColorScore>
-1.126

> <ROCS_Overlap>
1253.459

> <ROCS_Rank>
768                 

$$$$
ligprep_h3d.sdf:349_1637
  -OEChem-08212117123D

 60 62  0     1  0  0  0  0  0999 V2000
  -26.1675   -1.7704  -30.5671 C   0  0  0  0  0  0  0  0  0  0  0  0
  -17.5524   -4.9974  -24.9459 C   0  0  0  0  0  0  0  0  0  0  0  0
  -26.0565   -2.3175  -31.8454 C   0  0  0  0  0  0  0  0  0  0  0  0
  -25.0218   -1.5373  -29.8063 C   0  0  0  0  0  0  0  0  0  0  0  0
  -17.3433   -4.5017  -26.2328 C   0  0  0  0  0  0  0  0  0  0  0  0
  -18.7181   -5.7049  -24.6520 C   0  0  0  0  0  0  0  0  0  0  0  0
  -24.7999   -2.6316  -32.3629 C   0  0  0  0  0  0  0  0  0  0  0  0
  -23.7651   -1.8514  -30.3238 C   0  0  0  0  0  0  0  0  0  0  0  0
  -18.2998   -4.7133  -27.2257 C   0  0  0  0  0  0  0  0  0  0  0  0
  -19.6747   -5.9165  -25.6449 C   0  0  0  0  0  0  0  0  0  0  0  0
  -25.5474   -4.8073  -23.1408 C   0  0  0  0  0  0  0  0  0  0  0  0
  -25.5434   -5.3557  -24.4044 C   0  0  0  0  0  0  0  0  0  0  0  0
  -23.5545   -3.7762  -23.5818 C   0  0  0  0  0  0  0  0  0  0  0  0
  -23.6542   -2.3986  -31.6021 C   0  0  0  0  0  0  0  0  0  0  0  0
  -19.4655   -5.4207  -26.9318 C   0  0  0  0  0  0  0  0  0  0  0  0
  -23.5500   -4.3252  -24.8452 C   0  0  0  0  0  0  0  0  0  0  0  0
  -20.7040   -4.6288  -32.7043 C   0  0  0  0  0  0  0  0  0  0  0  0
  -20.7566   -5.7258  -33.4690 C   0  0  0  0  0  0  0  0  0  0  0  0
  -22.4430   -4.0619  -25.8004 C   0  0  0  0  0  0  0  0  0  0  0  0
  -22.2691   -4.5543  -29.4101 C   0  0  0  0  0  0  0  0  0  0  0  0
  -19.8511   -7.6055  -35.2269 C   0  0  0  0  0  0  0  0  0  0  0  0
  -22.2938   -2.7385  -32.1615 C   0  0  0  0  0  0  0  0  0  0  0  0
  -20.5010   -5.6499  -28.0056 C   0  0  0  0  0  0  0  0  0  0  0  0
  -21.8484   -4.1736  -31.8383 C   0  0  2  0  0  0  0  0  0  0  0  0
  -21.5490   -4.5327  -28.0665 C   0  0  2  0  0  0  0  0  0  0  0  0
  -24.5530   -4.0077  -22.7068 N   0  0  0  0  0  0  0  0  0  0  0  0
  -24.5446   -5.1245  -25.2793 N   0  0  0  0  0  0  0  0  0  0  0  0
  -22.5533   -4.6720  -27.0422 N   0  0  0  0  0  0  0  0  0  0  0  0
  -21.4127   -4.2659  -30.4642 N   0  0  0  0  0  0  0  0  0  0  0  0
  -21.5021   -3.3554  -25.4484 O   0  0  0  0  0  0  0  0  0  0  0  0
  -23.4758   -4.7612  -29.5192 O   0  0  0  0  0  0  0  0  0  0  0  0
  -19.1433   -5.1060  -35.4011 O   0  0  0  0  0  0  0  0  0  0  0  0
  -18.2789   -6.4879  -33.4784 O   0  0  0  0  0  0  0  0  0  0  0  0
  -19.3565   -6.1224  -34.3834 S   0  0  0  0  0  0  0  0  0  0  0  0
  -27.1460   -1.5247  -30.1648 H   0  0  0  0  0  0  0  0  0  0  0  0
  -16.8069   -4.8338  -24.1733 H   0  0  0  0  0  0  0  0  0  0  0  0
  -26.9484   -2.4981  -32.4383 H   0  0  0  0  0  0  0  0  0  0  0  0
  -25.1077   -1.1104  -28.8115 H   0  0  0  0  0  0  0  0  0  0  0  0
  -16.4352   -3.9518  -26.4622 H   0  0  0  0  0  0  0  0  0  0  0  0
  -18.8808   -6.0920  -23.6504 H   0  0  0  0  0  0  0  0  0  0  0  0
  -24.7231   -3.0577  -33.3597 H   0  0  0  0  0  0  0  0  0  0  0  0
  -22.8780   -1.6665  -29.7239 H   0  0  0  0  0  0  0  0  0  0  0  0
  -18.1284   -4.3232  -28.2256 H   0  0  0  0  0  0  0  0  0  0  0  0
  -20.5799   -6.4687  -25.4067 H   0  0  0  0  0  0  0  0  0  0  0  0
  -26.3499   -4.9937  -22.4378 H   0  0  0  0  0  0  0  0  0  0  0  0
  -26.3439   -5.9967  -24.7530 H   0  0  0  0  0  0  0  0  0  0  0  0
  -22.7592   -3.1318  -23.2257 H   0  0  0  0  0  0  0  0  0  0  0  0
  -19.7979   -4.0260  -32.6799 H   0  0  0  0  0  0  0  0  0  0  0  0
  -21.6312   -6.3620  -33.5224 H   0  0  0  0  0  0  0  0  0  0  0  0
  -19.0181   -7.9443  -35.8449 H   0  0  0  0  0  0  0  0  0  0  0  0
  -20.1038   -8.3588  -34.4793 H   0  0  0  0  0  0  0  0  0  0  0  0
  -20.7188   -7.3757  -35.8471 H   0  0  0  0  0  0  0  0  0  0  0  0
  -21.5498   -2.0146  -31.8012 H   0  0  0  0  0  0  0  0  0  0  0  0
  -22.3247   -2.5960  -33.2506 H   0  0  0  0  0  0  0  0  0  0  0  0
  -20.0051   -5.7598  -28.9795 H   0  0  0  0  0  0  0  0  0  0  0  0
  -20.9832   -6.6182  -27.8172 H   0  0  0  0  0  0  0  0  0  0  0  0
  -22.7005   -4.8580  -31.9300 H   0  0  0  0  0  0  0  0  0  0  0  0
  -21.0894   -3.5479  -27.9215 H   0  0  0  0  0  0  0  0  0  0  0  0
  -23.3333   -5.2944  -27.2366 H   0  0  0  0  0  0  0  0  0  0  0  0
  -20.4296   -4.1119  -30.2585 H   0  0  0  0  0  0  0  0  0  0  0  0
  1  3  2  0  0  0  0
  1  4  1  0  0  0  0
  2  5  2  0  0  0  0
  2  6  1  0  0  0  0
  3  7  1  0  0  0  0
  4  8  2  0  0  0  0
  5  9  1  0  0  0  0
  6 10  2  0  0  0  0
  7 14  2  0  0  0  0
  8 14  1  0  0  0  0
  9 15  2  0  0  0  0
 10 15  1  0  0  0  0
 11 12  1  0  0  0  0
 11 26  2  0  0  0  0
 12 27  2  0  0  0  0
 13 16  2  0  0  0  0
 13 26  1  0  0  0  0
 14 22  1  0  0  0  0
 15 23  1  0  0  0  0
 16 19  1  0  0  0  0
 16 27  1  0  0  0  0
 17 18  2  0  0  0  0
 17 24  1  0  0  0  0
 18 34  1  0  0  0  0
 19 28  1  0  0  0  0
 19 30  2  0  0  0  0
 20 25  1  0  0  0  0
 20 29  1  0  0  0  0
 20 31  2  0  0  0  0
 21 34  1  0  0  0  0
 22 24  1  0  0  0  0
 23 25  1  0  0  0  0
 24 29  1  0  0  0  0
 25 28  1  0  0  0  0
 32 34  2  0  0  0  0
 33 34  2  0  0  0  0
  1 35  1  0  0  0  0
  2 36  1  0  0  0  0
  3 37  1  0  0  0  0
  4 38  1  0  0  0  0
  5 39  1  0  0  0  0
  6 40  1  0  0  0  0
  7 41  1  0  0  0  0
  8 42  1  0  0  0  0
  9 43  1  0  0  0  0
 10 44  1  0  0  0  0
 11 45  1  0  0  0  0
 12 46  1  0  0  0  0
 13 47  1  0  0  0  0
 17 48  1  0  0  0  0
 18 49  1  0  0  0  0
 21 50  1  0  0  0  0
 21 51  1  0  0  0  0
 21 52  1  0  0  0  0
 22 53  1  0  0  0  0
 22 54  1  0  0  0  0
 23 55  1  0  0  0  0
 23 56  1  0  0  0  0
 24 57  1  0  0  0  0
 25 58  1  0  0  0  0
 28 59  1  0  0  0  0
 29 60  1  0  0  0  0
M  END
> <SMILES>
CS(=O)(=O)/C=C/[C@H](Cc1ccccc1)NC(=O)[C@H](Cc1ccccc1)NC(=O)c1cnccn1

> <FORMATTED_ID>
H3D-003742

> <MOLFORMULA>
C25H26N4O4S

> <Exact Mass>
478.17

> <XLogP>
1.17

> <TPSA_NOPS>
126.5

> <s_m_source_file>
ligprep_h3d.sdf

> <i_m_source_file_index>
349

> <i_lp_mmshare_version>
55123

> <i_f3d_flags>
0

> <s_epik_input>
W2NIXTFbY0hdW2NIXVtjSF1bY0hdYzFbQ0gyXVtDQEBIXShcW0NIXT1bQ0hdXFMoPU8pKD1PKVtDSDNdKVtOSF1DKD1PKVtDQEhdKFtDSDJdYzJbY0hdW2NIXVtjSF1bY0hdW2NIXTIpW05IXUMoPU8pYzNbY0hdbltjSF1bY0hdbjM=

> <s_epik_cmdline>
J2VwaWtfcHl0aG9uJywgJy1waHQnLCAnMC41JywgJy1waCcsICc3LjUnLCAnLXRuJywgJzgnLCAnLW1hJywgJzUwMCcsICctaW1hZScsICc8aW5maWxlLm1hZT4nLCAnLW9tYWUnLCAnPG91dGZpbGUubWFlPic=

> <r_lp_tautomer_probability>
1

> <r_epik_Ionization_Penalty>
3.64526e-05

> <r_epik_Ionization_Penalty_Charging>
0

> <r_epik_Ionization_Penalty_Neutral>
3.64526e-05

> <r_epik_State_Penalty>
-0

> <r_epik_Charging_Adjusted_Penalty>
0

> <i_epik_Tot_Q>
0

> <i_epik_Tot_abs_Q>
0

> <s_lp_Force_Field>
S-OPLS

> <r_lp_Energy>
21.251

> <b_lp_Chiralities_Consistent>
1

> <s_lp_Variant>
ligprep_h3d.sdf:349-1

> <ROCS_ShapeQuery>
_7L13

> <ROCS_TanimotoCombo>
0.714 

> <ROCS_ShapeTanimoto>
0.661 

> <ROCS_ColorTanimoto>
0.053 

> <ROCS_RefTversky>
0.759 

> <ROCS_RefColorTversky>
0.111 

> <ROCS_RefTverskyCombo>
0.870 

> <ROCS_FitTversky>
0.835 

> <ROCS_FitColorTversky>
0.092 

> <ROCS_FitTverskyCombo>
0.928 

> <ROCS_ColorScore>
-1.008

> <ROCS_Overlap>
1254.660

> <ROCS_Rank>
769                 

$$$$
ligprep_h3d.sdf:4785_1548
  -OEChem-08212117123D

 59 63  0     1  0  0  0  0  0999 V2000
  -25.7485   -4.5759  -22.7412 C   0  0  0  0  0  0  0  0  0  0  0  0
  -25.8002   -3.5886  -23.7251 C   0  0  0  0  0  0  0  0  0  0  0  0
  -24.7752   -5.5732  -22.8043 C   0  0  0  0  0  0  0  0  0  0  0  0
  -19.2868   -5.9835  -33.8307 C   0  0  0  0  0  0  0  0  0  0  0  0
  -21.4372   -6.2982  -34.8859 C   0  0  0  0  0  0  0  0  0  0  0  0
  -19.8859   -5.2022  -32.8427 C   0  0  0  0  0  0  0  0  0  0  0  0
  -22.0364   -5.5170  -33.8979 C   0  0  0  0  0  0  0  0  0  0  0  0
  -24.8788   -3.5986  -24.7723 C   0  0  0  0  0  0  0  0  0  0  0  0
  -23.8538   -5.5832  -23.8515 C   0  0  0  0  0  0  0  0  0  0  0  0
  -18.1286   -6.0345  -25.2542 C   0  0  0  0  0  0  0  0  0  0  0  0
  -16.2363   -5.2546  -26.0580 C   0  0  0  0  0  0  0  0  0  0  0  0
  -20.0624   -6.5315  -34.8524 C   0  0  0  0  0  0  0  0  0  0  0  0
  -17.5846   -4.9938  -26.0307 C   0  0  0  0  0  0  0  0  0  0  0  0
  -21.2607   -4.9690  -32.8762 C   0  0  0  0  0  0  0  0  0  0  0  0
  -23.9056   -4.5959  -24.8355 C   0  0  0  0  0  0  0  0  0  0  0  0
  -18.2611   -3.8596  -26.6871 C   0  0  0  0  0  0  0  0  0  0  0  0
  -19.4295   -7.3552  -35.8949 C   0  0  0  0  0  0  0  0  0  0  0  0
  -20.5598   -3.2394  -27.7475 C   0  0  0  0  0  0  0  0  0  0  0  0
  -20.3392   -5.2807  -27.1540 C   0  0  0  0  0  0  0  0  0  0  0  0
  -23.1098   -4.2779  -29.6037 C   0  0  0  0  0  0  0  0  0  0  0  0
  -20.7602   -4.9203  -29.6934 C   0  0  0  0  0  0  0  0  0  0  0  0
  -22.6957   -4.7824  -28.2287 C   0  0  1  0  0  0  0  0  0  0  0  0
  -21.1790   -4.5791  -28.2514 C   0  0  0  0  0  0  0  0  0  0  0  0
  -21.9046   -4.1310  -31.8112 C   0  0  0  0  0  0  0  0  0  0  0  0
  -23.4330   -4.0742  -27.1071 C   0  0  0  0  0  0  0  0  0  0  0  0
  -17.2016   -6.8925  -24.8199 N   0  0  0  0  0  0  0  0  0  0  0  0
  -16.0616   -6.3915  -25.3252 N   0  0  0  0  0  0  0  0  0  0  0  0
  -19.5519   -4.0610  -27.0995 N   0  0  0  0  0  0  0  0  0  0  0  0
  -22.0413   -4.8461  -30.5066 N   0  3  2  0  0  0  0  0  0  0  0  0
  -20.1677   -7.8499  -36.8272 O   0  5  0  0  0  0  0  0  0  0  0  0
  -17.6458   -2.8034  -26.8103 O   0  0  0  0  0  0  0  0  0  0  0  0
  -18.1583   -7.5546  -35.8408 O   0  0  0  0  0  0  0  0  0  0  0  0
  -23.0001   -4.6071  -25.8661 O   0  0  0  0  0  0  0  0  0  0  0  0
  -26.4654   -4.5681  -21.9254 H   0  0  0  0  0  0  0  0  0  0  0  0
  -26.5581   -2.8121  -23.6762 H   0  0  0  0  0  0  0  0  0  0  0  0
  -24.7354   -6.3416  -22.0376 H   0  0  0  0  0  0  0  0  0  0  0  0
  -18.2145   -6.1592  -33.7954 H   0  0  0  0  0  0  0  0  0  0  0  0
  -22.0502   -6.7206  -35.6778 H   0  0  0  0  0  0  0  0  0  0  0  0
  -19.2732   -4.7795  -32.0508 H   0  0  0  0  0  0  0  0  0  0  0  0
  -23.1082   -5.3405  -33.9320 H   0  0  0  0  0  0  0  0  0  0  0  0
  -24.9255   -2.8275  -25.5364 H   0  0  0  0  0  0  0  0  0  0  0  0
  -23.0990   -6.3635  -23.8966 H   0  0  0  0  0  0  0  0  0  0  0  0
  -19.1611   -6.2068  -24.9847 H   0  0  0  0  0  0  0  0  0  0  0  0
  -15.4013   -4.7472  -26.5206 H   0  0  0  0  0  0  0  0  0  0  0  0
  -20.1202   -2.5885  -28.5087 H   0  0  0  0  0  0  0  0  0  0  0  0
  -21.1615   -2.6411  -27.0631 H   0  0  0  0  0  0  0  0  0  0  0  0
  -20.8713   -5.5145  -26.2291 H   0  0  0  0  0  0  0  0  0  0  0  0
  -19.7488   -6.1423  -27.4785 H   0  0  0  0  0  0  0  0  0  0  0  0
  -24.0821   -4.6518  -29.9373 H   0  0  0  0  0  0  0  0  0  0  0  0
  -23.0660   -3.1852  -29.6780 H   0  0  0  0  0  0  0  0  0  0  0  0
  -20.0278   -4.2240  -30.1112 H   0  0  0  0  0  0  0  0  0  0  0  0
  -20.3985   -5.9486  -29.7859 H   0  0  0  0  0  0  0  0  0  0  0  0
  -22.9158   -5.8540  -28.1609 H   0  0  0  0  0  0  0  0  0  0  0  0
  -21.3215   -3.2251  -31.6137 H   0  0  0  0  0  0  0  0  0  0  0  0
  -22.9126   -3.8211  -32.1073 H   0  0  0  0  0  0  0  0  0  0  0  0
  -24.5102   -4.2291  -27.2040 H   0  0  0  0  0  0  0  0  0  0  0  0
  -23.2181   -3.0032  -27.1283 H   0  0  0  0  0  0  0  0  0  0  0  0
  -15.1953   -6.8773  -25.1289 H   0  0  0  0  0  0  0  0  0  0  0  0
  -22.3158   -5.8154  -30.7196 H   0  0  0  0  0  0  0  0  0  0  0  0
  1  2  2  0  0  0  0
  1  3  1  0  0  0  0
  2  8  1  0  0  0  0
  3  9  2  0  0  0  0
  4  6  1  0  0  0  0
  4 12  2  0  0  0  0
  5  7  2  0  0  0  0
  5 12  1  0  0  0  0
  6 14  2  0  0  0  0
  7 14  1  0  0  0  0
  8 15  2  0  0  0  0
  9 15  1  0  0  0  0
 10 13  1  0  0  0  0
 10 26  2  0  0  0  0
 11 13  2  0  0  0  0
 11 27  1  0  0  0  0
 12 17  1  0  0  0  0
 13 16  1  0  0  0  0
 14 24  1  0  0  0  0
 15 33  1  0  0  0  0
 16 28  1  0  0  0  0
 16 31  2  0  0  0  0
 17 30  1  0  0  0  0
 17 32  2  0  0  0  0
 18 23  1  0  0  0  0
 18 28  1  0  0  0  0
 19 23  1  0  0  0  0
 19 28  1  0  0  0  0
 20 22  1  0  0  0  0
 20 29  1  0  0  0  0
 21 23  1  0  0  0  0
 21 29  1  0  0  0  0
 22 23  1  0  0  0  0
 22 25  1  0  0  0  0
 24 29  1  0  0  0  0
 25 33  1  0  0  0  0
 26 27  1  0  0  0  0
  1 34  1  0  0  0  0
  2 35  1  0  0  0  0
  3 36  1  0  0  0  0
  4 37  1  0  0  0  0
  5 38  1  0  0  0  0
  6 39  1  0  0  0  0
  7 40  1  0  0  0  0
  8 41  1  0  0  0  0
  9 42  1  0  0  0  0
 10 43  1  0  0  0  0
 11 44  1  0  0  0  0
 18 45  1  0  0  0  0
 18 46  1  0  0  0  0
 19 47  1  0  0  0  0
 19 48  1  0  0  0  0
 20 49  1  0  0  0  0
 20 50  1  0  0  0  0
 21 51  1  0  0  0  0
 21 52  1  0  0  0  0
 22 53  1  0  0  0  0
 24 54  1  0  0  0  0
 24 55  1  0  0  0  0
 25 56  1  0  0  0  0
 25 57  1  0  0  0  0
 27 58  1  0  0  0  0
 29 59  1  0  0  0  0
M  CHG  2  29   1  30  -1
M  END
> <SMILES>
OC(=O)c1ccc(cc1)CN1CC(COc2ccccc2)C2(C1)CN(C2)C(=O)c1cn[nH]c1

> <FORMATTED_ID>
H3D-007426

> <MOLFORMULA>
C25H26N4O4

> <Exact Mass>
446.2

> <XLogP>
2.99

> <TPSA_NOPS>
98.8

> <s_m_source_file>
ligprep_h3d.sdf

> <i_m_source_file_index>
4785

> <i_lp_mmshare_version>
55123

> <i_f3d_flags>
0

> <s_epik_input>
W09IXUMoPU8pYzFbY0hdW2NIXWMoW2NIXVtjSF0xKVtDSDJdTihbQ0gyXTIpW0NIMl1bQ0BIXShbQ0gyXU9jM1tjSF1bY0hdW2NIXVtjSF1bY0hdMylDMjRbQ0gyXU4oW0NIMl00KUMoPU8pQzU9W0NIXU49TltDSDJdNQ==

> <s_epik_cmdline>
J2VwaWtfcHl0aG9uJywgJy1waHQnLCAnMC41JywgJy1waCcsICc3LjUnLCAnLXRuJywgJzgnLCAnLW1hJywgJzUwMCcsICctaW1hZScsICc8aW5maWxlLm1hZT4nLCAnLW9tYWUnLCAnPG91dGZpbGUubWFlPic=

> <r_lp_tautomer_probability>
0.5

> <r_epik_Ionization_Penalty>
0.0603143

> <r_epik_Ionization_Penalty_Charging>
0.0603112

> <r_epik_Ionization_Penalty_Neutral>
3.1608e-06

> <r_epik_State_Penalty>
0.0521678

> <r_epik_Charging_Adjusted_Penalty>
0.112479

> <i_epik_Tot_Q>
0

> <i_epik_Tot_abs_Q>
2

> <s_lp_Force_Field>
S-OPLS

> <r_lp_Energy>
32.1142

> <b_lp_Chiralities_Consistent>
1

> <s_lp_Variant>
ligprep_h3d.sdf:4785-1

> <ROCS_ShapeQuery>
_7L13

> <ROCS_TanimotoCombo>
0.706 

> <ROCS_ShapeTanimoto>
0.653 

> <ROCS_ColorTanimoto>
0.053 

> <ROCS_RefTversky>
0.759 

> <ROCS_RefColorTversky>
0.125 

> <ROCS_RefTverskyCombo>
0.885 

> <ROCS_FitTversky>
0.824 

> <ROCS_FitColorTversky>
0.084 

> <ROCS_FitTverskyCombo>
0.908 

> <ROCS_ColorScore>
-1.159

> <ROCS_Overlap>
1255.349

> <ROCS_Rank>
770                 

$$$$
